
OS:Version,
  {8dc2650d-c355-4bfe-b6e5-1d3b078fd7da}, !- Handle
  3.10.0;                                 !- Version Identifier

OS:Site,
  {dd2b8ffc-62bd-440d-a2cf-2f78f9cf842b}, !- Handle
  Site 1,                                 !- Name
  ,                                       !- Latitude {deg}
  ,                                       !- Longitude {deg}
  ,                                       !- Time Zone {hr}
  ,                                       !- Elevation {m}
  ;                                       !- Terrain

OS:YearDescription,
  {fcd74cb7-082d-47a2-a0f5-09712798f0bb}; !- Handle

OS:ClimateZones,
  {9a02a23b-a919-4556-907f-7b510143ea0b}, !- Handle
  ASHRAE,                                 !- Climate Zone Institution Name 1
  ANSI/ASHRAE Standard 169,               !- Climate Zone Document Name 1
  2006,                                   !- Climate Zone Document Year 1
  ,                                       !- Climate Zone Value 1
  CEC,                                    !- Climate Zone Institution Name 2
  California Climate Zone Descriptions,   !- Climate Zone Document Name 2
  1995,                                   !- Climate Zone Document Year 2
  ;                                       !- Climate Zone Value 2

OS:Building,
  {49f394f2-ad8f-47a5-98a3-6f071517af27}, !- Handle
  VRF Library - Daikin,                   !- Name
  ,                                       !- Building Sector Type
  ,                                       !- North Axis {deg}
  ,                                       !- Nominal Floor to Floor Height {m}
  ,                                       !- Space Type Name
  ,                                       !- Default Construction Set Name
  ;                                       !- Default Schedule Set Name

OS:Facility,
  {128efd20-f716-4a06-a177-06a44a54c8fc}; !- Handle

OS:SimulationControl,
  {4e72e501-a025-4288-8d0e-41d573d88867}; !- Handle

OS:Sizing:Parameters,
  {38c91567-8108-4ebd-81d6-e8fb7b2e81c2}, !- Handle
  1.25,                                   !- Heating Sizing Factor
  1.15;                                   !- Cooling Sizing Factor

OS:Timestep,
  {ebeb2086-bb71-435f-9c8e-e3dddbe65ccf}, !- Handle
  6;                                      !- Number of Timesteps per Hour

OS:ShadowCalculation,
  {e1026e38-8906-40d2-b315-1a40a2adaaf7}, !- Handle
  PolygonClipping,                        !- Shading Calculation Method
  ,                                       !- Shading Calculation Update Frequency Method
  20,                                     !- Shading Calculation Update Frequency
  15000,                                  !- Maximum Figures in Shadow Overlap Calculations
  ,                                       !- Polygon Clipping Algorithm
  512,                                    !- Pixel Counting Resolution
  ,                                       !- Sky Diffuse Modeling Algorithm
  No,                                     !- Output External Shading Calculation Results
  No,                                     !- Disable Self-Shading Within Shading Zone Groups
  No;                                     !- Disable Self-Shading From Shading Zone Groups to Other Zones

OS:HeatBalanceAlgorithm,
  {9245c642-bee7-4e94-92f2-bb1c3b1efb94}, !- Handle
  ConductionTransferFunction,             !- Algorithm
  200;                                    !- Surface Temperature Upper Limit {C}

OS:RunPeriod,
  {cc99fd0d-492a-49e2-86c1-6969d085eab5}, !- Handle
  Run Period 1,                           !- Name
  1,                                      !- Begin Month
  1,                                      !- Begin Day of Month
  12,                                     !- End Month
  31,                                     !- End Day of Month
  ,                                       !- Use Weather File Holidays and Special Days
  ,                                       !- Use Weather File Daylight Saving Period
  ,                                       !- Apply Weekend Holiday Rule
  ,                                       !- Use Weather File Rain Indicators
  ,                                       !- Use Weather File Snow Indicators
  ;                                       !- Number of Times Runperiod to be Repeated

OS:LifeCycleCost:Parameters,
  {3ca82c2a-8d03-4697-9d21-8e05fe9bae91}, !- Handle
  ,                                       !- Analysis Type
  ,                                       !- Discounting Convention
  ,                                       !- Inflation Approach
  ,                                       !- Real Discount Rate
  ,                                       !- Nominal Discount Rate
  ,                                       !- Inflation
  ,                                       !- Base Date Month
  ,                                       !- Base Date Year
  ,                                       !- Service Date Month
  ,                                       !- Service Date Year
  ;                                       !- Length of Study Period in Years

OS:AirConditioner:VariableRefrigerantFlow,
  {3a159599-9727-448f-9ff9-bc4879e4bce6}, !- Handle
  Daikin RXYQ72AATJB/AAYDB NONDUCTED-VRF-OU, !- Name
  ,                                       !- Availability Schedule
  21102,                                  !- Gross Rated Total Cooling Capacity {W}
  4.46,                                   !- Gross Rated Cooling COP {W/W}
  -5,                                     !- Minimum Outdoor Temperature in Cooling Mode {C}
  50,                                     !- Maximum Outdoor Temperature in Cooling Mode {C}
  {228e4232-929d-482f-8459-650f18ac6434}, !- Cooling Capacity Ratio Modifier Function of Low Temperature Curve Name
  ,                                       !- Cooling Capacity Ratio Boundary Curve Name
  ,                                       !- Cooling Capacity Ratio Modifier Function of High Temperature Curve Name
  {1c2068fc-6208-402a-a3ed-3743985bfaf9}, !- Cooling Energy Input Ratio Modifier Function of Low Temperature Curve Name
  ,                                       !- Cooling Energy Input Ratio Boundary Curve Name
  ,                                       !- Cooling Energy Input Ratio Modifier Function of High Temperature Curve Name
  {68fbf02d-8c87-4b7e-ad22-720c61cb3002}, !- Cooling Energy Input Ratio Modifier Function of Low Part-Load Ratio Curve Name
  {68fbf02d-8c87-4b7e-ad22-720c61cb3002}, !- Cooling Energy Input Ratio Modifier Function of High Part-Load Ratio Curve Name
  {a3350158-1699-4914-81f8-f0b53dc26c67}, !- Cooling Combination Ratio Correction Factor Curve Name
  {ebe5d151-a107-46fb-a096-8ec47c2b1fac}, !- Cooling Part-Load Fraction Correlation Curve Name
  23740,                                  !- Gross Rated Heating Capacity {W}
  1.125,                                  !- Rated Heating Capacity Sizing Ratio {W/W}
  4.58,                                   !- Rated Heating COP {W/W}
  -24.8,                                  !- Minimum Outdoor Temperature in Heating Mode {C}
  15.6,                                   !- Maximum Outdoor Temperature in Heating Mode {C}
  {b232983c-73be-44d4-a5c7-376daaebec9e}, !- Heating Capacity Ratio Modifier Function of Low Temperature Curve Name
  ,                                       !- Heating Capacity Ratio Boundary Curve Name
  ,                                       !- Heating Capacity Ratio Modifier Function of High Temperature Curve Name
  {4bf85a71-57c2-4c76-b929-20120b22717c}, !- Heating Energy Input Ratio Modifier Function of Low Temperature Curve Name
  ,                                       !- Heating Energy Input Ratio Boundary Curve Name
  ,                                       !- Heating Energy Input Ratio Modifier Function of High Temperature Curve Name
  WetBulbTemperature,                     !- Heating Performance Curve Outdoor Temperature Type
  {09f4ad77-6945-4e10-8b59-1e7e286e6fc3}, !- Heating Energy Input Ratio Modifier Function of Low Part-Load Ratio Curve Name
  {09f4ad77-6945-4e10-8b59-1e7e286e6fc3}, !- Heating Energy Input Ratio Modifier Function of High Part-Load Ratio Curve Name
  {ec7b45cd-3e1f-4232-b105-82f7f58f79a5}, !- Heating Combination Ratio Correction Factor Curve Name
  {ebe5d151-a107-46fb-a096-8ec47c2b1fac}, !- Heating Part-Load Fraction Correlation Curve Name
  0.08,                                   !- Minimum Heat Pump Part-Load Ratio {dimensionless}
  ,                                       !- Zone Name for Master Thermostat Location
  LoadPriority,                           !- Master Thermostat Priority Control Type
  ,                                       !- Thermostat Priority Schedule
  {f3ac72b1-3f83-4336-aaa2-69132d324c47}, !- Zone Terminal Unit List
  No,                                     !- Heat Pump Waste Heat Recovery
  30,                                     !- Equivalent Piping Length used for Piping Correction Factor in Cooling Mode {m}
  10,                                     !- Vertical Height used for Piping Correction Factor {m}
  {44d4dca9-2920-4bd2-b483-6cde2b2185ef}, !- Piping Correction Factor for Length in Cooling Mode Curve Name
  -0.000386,                              !- Piping Correction Factor for Height in Cooling Mode Coefficient {1/m}
  30,                                     !- Equivalent Piping Length used for Piping Correction Factor in Heating Mode {m}
  {caa4a6c4-6bfb-43da-a7aa-1c7d80ee49d0}, !- Piping Correction Factor for Length in Heating Mode Curve Name
  0,                                      !- Piping Correction Factor for Height in Heating Mode Coefficient {1/m}
  0,                                      !- Crankcase Heater Power per Compressor {W}
  1,                                      !- Number of Compressors {dimensionless}
  1,                                      !- Ratio of Compressor Size to Total Compressor Capacity {W/W}
  0,                                      !- Maximum Outdoor Dry-bulb Temperature for Crankcase Heater {C}
  ReverseCycle,                           !- Defrost Strategy
  OnDemand,                               !- Defrost Control
  {98847ca8-c15c-4620-84aa-c13860d4fadb}, !- Defrost Energy Input Ratio Modifier Function of Temperature Curve Name
  0.058333,                               !- Defrost Time Period Fraction {dimensionless}
  0,                                      !- Resistive Defrost Heater Capacity {W}
  6.94444444444444,                       !- Maximum Outdoor Dry-bulb Temperature for Defrost Operation {C}
  AirCooled,                              !- Condenser Type
  ,                                       !- Condenser Inlet Node
  ,                                       !- Condenser Outlet Node
  ,                                       !- Water Condenser Volume Flow Rate {m3/s}
  0.9,                                    !- Evaporative Condenser Effectiveness {dimensionless}
  ,                                       !- Evaporative Condenser Air Flow Rate {m3/s}
  ,                                       !- Evaporative Condenser Pump Rated Power Consumption {W}
  ,                                       !- Supply Water Storage Tank
  0,                                      !- Basin Heater Capacity {W/K}
  2,                                      !- Basin Heater Setpoint Temperature {C}
  ,                                       !- Basin Heater Operating Schedule
  Electricity,                            !- Fuel Type
  -4.9,                                   !- Minimum Outdoor Temperature in Heat Recovery Mode {C}
  15.59,                                  !- Maximum Outdoor Temperature in Heat Recovery Mode {C}
  {df1125a2-34a4-4ce5-9312-a093e7e3aba3}, !- Heat Recovery Cooling Capacity Modifier Curve Name
  0.5,                                    !- Initial Heat Recovery Cooling Capacity Fraction {W/W}
  0.083,                                  !- Heat Recovery Cooling Capacity Time Constant {hr}
  {c06f57c0-e6a2-4577-8043-c6c723b819a3}, !- Heat Recovery Cooling Energy Modifier Curve Name
  1,                                      !- Initial Heat Recovery Cooling Energy Fraction {W/W}
  0,                                      !- Heat Recovery Cooling Energy Time Constant {hr}
  {991d84df-5f5b-4092-81e6-2f4d64e3f8a6}, !- Heat Recovery Heating Capacity Modifier Curve Name
  0.5,                                    !- Initial Heat Recovery Heating Capacity Fraction {W/W}
  0.083,                                  !- Heat Recovery Heating Capacity Time Constant {hr}
  {36715673-fabf-4b26-bcb3-54efccbcf6ca}, !- Heat Recovery Heating Energy Modifier Curve Name
  0.5,                                    !- Initial Heat Recovery Heating Energy Fraction {W/W}
  0;                                      !- Heat Recovery Heating Energy Time Constant {hr}

OS:AirConditioner:VariableRefrigerantFlow,
  {b3e0402d-a9dd-44fe-b0e4-74590cb0b469}, !- Handle
  Daikin RXYQ72AATJB/AAYDB DUCTED-VRF-OU, !- Name
  ,                                       !- Availability Schedule
  21102,                                  !- Gross Rated Total Cooling Capacity {W}
  4.46,                                   !- Gross Rated Cooling COP {W/W}
  -5,                                     !- Minimum Outdoor Temperature in Cooling Mode {C}
  50,                                     !- Maximum Outdoor Temperature in Cooling Mode {C}
  {228e4232-929d-482f-8459-650f18ac6434}, !- Cooling Capacity Ratio Modifier Function of Low Temperature Curve Name
  ,                                       !- Cooling Capacity Ratio Boundary Curve Name
  ,                                       !- Cooling Capacity Ratio Modifier Function of High Temperature Curve Name
  {1c2068fc-6208-402a-a3ed-3743985bfaf9}, !- Cooling Energy Input Ratio Modifier Function of Low Temperature Curve Name
  ,                                       !- Cooling Energy Input Ratio Boundary Curve Name
  ,                                       !- Cooling Energy Input Ratio Modifier Function of High Temperature Curve Name
  {68fbf02d-8c87-4b7e-ad22-720c61cb3002}, !- Cooling Energy Input Ratio Modifier Function of Low Part-Load Ratio Curve Name
  {68fbf02d-8c87-4b7e-ad22-720c61cb3002}, !- Cooling Energy Input Ratio Modifier Function of High Part-Load Ratio Curve Name
  {a3350158-1699-4914-81f8-f0b53dc26c67}, !- Cooling Combination Ratio Correction Factor Curve Name
  {ebe5d151-a107-46fb-a096-8ec47c2b1fac}, !- Cooling Part-Load Fraction Correlation Curve Name
  23740,                                  !- Gross Rated Heating Capacity {W}
  1.125,                                  !- Rated Heating Capacity Sizing Ratio {W/W}
  4.58,                                   !- Rated Heating COP {W/W}
  -24.8,                                  !- Minimum Outdoor Temperature in Heating Mode {C}
  15.6,                                   !- Maximum Outdoor Temperature in Heating Mode {C}
  {b232983c-73be-44d4-a5c7-376daaebec9e}, !- Heating Capacity Ratio Modifier Function of Low Temperature Curve Name
  ,                                       !- Heating Capacity Ratio Boundary Curve Name
  ,                                       !- Heating Capacity Ratio Modifier Function of High Temperature Curve Name
  {4bf85a71-57c2-4c76-b929-20120b22717c}, !- Heating Energy Input Ratio Modifier Function of Low Temperature Curve Name
  ,                                       !- Heating Energy Input Ratio Boundary Curve Name
  ,                                       !- Heating Energy Input Ratio Modifier Function of High Temperature Curve Name
  WetBulbTemperature,                     !- Heating Performance Curve Outdoor Temperature Type
  {09f4ad77-6945-4e10-8b59-1e7e286e6fc3}, !- Heating Energy Input Ratio Modifier Function of Low Part-Load Ratio Curve Name
  {09f4ad77-6945-4e10-8b59-1e7e286e6fc3}, !- Heating Energy Input Ratio Modifier Function of High Part-Load Ratio Curve Name
  {ec7b45cd-3e1f-4232-b105-82f7f58f79a5}, !- Heating Combination Ratio Correction Factor Curve Name
  {ebe5d151-a107-46fb-a096-8ec47c2b1fac}, !- Heating Part-Load Fraction Correlation Curve Name
  0.08,                                   !- Minimum Heat Pump Part-Load Ratio {dimensionless}
  ,                                       !- Zone Name for Master Thermostat Location
  LoadPriority,                           !- Master Thermostat Priority Control Type
  ,                                       !- Thermostat Priority Schedule
  {f3ac72b1-3f83-4336-aaa2-69132d324c47}, !- Zone Terminal Unit List
  No,                                     !- Heat Pump Waste Heat Recovery
  30,                                     !- Equivalent Piping Length used for Piping Correction Factor in Cooling Mode {m}
  10,                                     !- Vertical Height used for Piping Correction Factor {m}
  {44d4dca9-2920-4bd2-b483-6cde2b2185ef}, !- Piping Correction Factor for Length in Cooling Mode Curve Name
  -0.000386,                              !- Piping Correction Factor for Height in Cooling Mode Coefficient {1/m}
  30,                                     !- Equivalent Piping Length used for Piping Correction Factor in Heating Mode {m}
  {caa4a6c4-6bfb-43da-a7aa-1c7d80ee49d0}, !- Piping Correction Factor for Length in Heating Mode Curve Name
  0,                                      !- Piping Correction Factor for Height in Heating Mode Coefficient {1/m}
  0,                                      !- Crankcase Heater Power per Compressor {W}
  1,                                      !- Number of Compressors {dimensionless}
  1,                                      !- Ratio of Compressor Size to Total Compressor Capacity {W/W}
  0,                                      !- Maximum Outdoor Dry-bulb Temperature for Crankcase Heater {C}
  ReverseCycle,                           !- Defrost Strategy
  OnDemand,                               !- Defrost Control
  {98847ca8-c15c-4620-84aa-c13860d4fadb}, !- Defrost Energy Input Ratio Modifier Function of Temperature Curve Name
  0.058333,                               !- Defrost Time Period Fraction {dimensionless}
  0,                                      !- Resistive Defrost Heater Capacity {W}
  6.94444444444444,                       !- Maximum Outdoor Dry-bulb Temperature for Defrost Operation {C}
  AirCooled,                              !- Condenser Type
  ,                                       !- Condenser Inlet Node
  ,                                       !- Condenser Outlet Node
  ,                                       !- Water Condenser Volume Flow Rate {m3/s}
  0.9,                                    !- Evaporative Condenser Effectiveness {dimensionless}
  ,                                       !- Evaporative Condenser Air Flow Rate {m3/s}
  ,                                       !- Evaporative Condenser Pump Rated Power Consumption {W}
  ,                                       !- Supply Water Storage Tank
  0,                                      !- Basin Heater Capacity {W/K}
  2,                                      !- Basin Heater Setpoint Temperature {C}
  ,                                       !- Basin Heater Operating Schedule
  Electricity,                            !- Fuel Type
  -4.9,                                   !- Minimum Outdoor Temperature in Heat Recovery Mode {C}
  15.59,                                  !- Maximum Outdoor Temperature in Heat Recovery Mode {C}
  {df1125a2-34a4-4ce5-9312-a093e7e3aba3}, !- Heat Recovery Cooling Capacity Modifier Curve Name
  0.5,                                    !- Initial Heat Recovery Cooling Capacity Fraction {W/W}
  0.083,                                  !- Heat Recovery Cooling Capacity Time Constant {hr}
  {c06f57c0-e6a2-4577-8043-c6c723b819a3}, !- Heat Recovery Cooling Energy Modifier Curve Name
  1,                                      !- Initial Heat Recovery Cooling Energy Fraction {W/W}
  0,                                      !- Heat Recovery Cooling Energy Time Constant {hr}
  {991d84df-5f5b-4092-81e6-2f4d64e3f8a6}, !- Heat Recovery Heating Capacity Modifier Curve Name
  0.5,                                    !- Initial Heat Recovery Heating Capacity Fraction {W/W}
  0.083,                                  !- Heat Recovery Heating Capacity Time Constant {hr}
  {36715673-fabf-4b26-bcb3-54efccbcf6ca}, !- Heat Recovery Heating Energy Modifier Curve Name
  0.5,                                    !- Initial Heat Recovery Heating Energy Fraction {W/W}
  0;                                      !- Heat Recovery Heating Energy Time Constant {hr}

OS:Table:Lookup,
  {228e4232-929d-482f-8459-650f18ac6434}, !- Handle
  Tbl Lookup RXYQ72AATJB/AAYDB_CCR_fn_T-Output, !- Name
  {b7667eb8-76f5-4bf5-b149-7e3dea162a85}, !- Independent Variable List Name
  DivisorOnly,                            !- Normalization Method
  1,                                      !- Normalization Divisor
  0.554,                                  !- Minimum Output {BasedOnField A5}
  1,                                      !- Maximum Output {BasedOnField A5}
  Dimensionless,                          !- Output Unit Type
  ,                                       !- External File Name
  ,                                       !- External File Column Number
  ,                                       !- External File Starting Row Number
  1,                                      !- Output Value 1 {BasedOnField A5}
  1,                                      !- Output Value 2 {BasedOnField A5}
  1,                                      !- Output Value 3 {BasedOnField A5}
  1,                                      !- Output Value 4 {BasedOnField A5}
  1,                                      !- Output Value 5 {BasedOnField A5}
  1,                                      !- Output Value 6 {BasedOnField A5}
  1,                                      !- Output Value 7 {BasedOnField A5}
  1,                                      !- Output Value 8 {BasedOnField A5}
  1,                                      !- Output Value 9 {BasedOnField A5}
  1,                                      !- Output Value 10 {BasedOnField A5}
  1,                                      !- Output Value 11 {BasedOnField A5}
  1,                                      !- Output Value 12 {BasedOnField A5}
  1,                                      !- Output Value 13 {BasedOnField A5}
  1,                                      !- Output Value 14 {BasedOnField A5}
  1,                                      !- Output Value 15 {BasedOnField A5}
  1,                                      !- Output Value 16 {BasedOnField A5}
  1,                                      !- Output Value 17 {BasedOnField A5}
  0.982,                                  !- Output Value 18 {BasedOnField A5}
  0.964,                                  !- Output Value 19 {BasedOnField A5}
  0.95,                                   !- Output Value 20 {BasedOnField A5}
  0.922,                                  !- Output Value 21 {BasedOnField A5}
  0.785,                                  !- Output Value 22 {BasedOnField A5}
  0.686,                                  !- Output Value 23 {BasedOnField A5}
  0.554,                                  !- Output Value 24 {BasedOnField A5}
  1,                                      !- Output Value 25 {BasedOnField A5}
  1,                                      !- Output Value 26 {BasedOnField A5}
  1,                                      !- Output Value 27 {BasedOnField A5}
  1,                                      !- Output Value 28 {BasedOnField A5}
  1,                                      !- Output Value 29 {BasedOnField A5}
  1,                                      !- Output Value 30 {BasedOnField A5}
  1,                                      !- Output Value 31 {BasedOnField A5}
  1,                                      !- Output Value 32 {BasedOnField A5}
  1,                                      !- Output Value 33 {BasedOnField A5}
  1,                                      !- Output Value 34 {BasedOnField A5}
  1,                                      !- Output Value 35 {BasedOnField A5}
  1,                                      !- Output Value 36 {BasedOnField A5}
  1,                                      !- Output Value 37 {BasedOnField A5}
  1,                                      !- Output Value 38 {BasedOnField A5}
  1,                                      !- Output Value 39 {BasedOnField A5}
  1,                                      !- Output Value 40 {BasedOnField A5}
  1,                                      !- Output Value 41 {BasedOnField A5}
  0.982,                                  !- Output Value 42 {BasedOnField A5}
  0.964,                                  !- Output Value 43 {BasedOnField A5}
  0.95,                                   !- Output Value 44 {BasedOnField A5}
  0.922,                                  !- Output Value 45 {BasedOnField A5}
  0.785,                                  !- Output Value 46 {BasedOnField A5}
  0.686,                                  !- Output Value 47 {BasedOnField A5}
  0.554,                                  !- Output Value 48 {BasedOnField A5}
  1,                                      !- Output Value 49 {BasedOnField A5}
  1,                                      !- Output Value 50 {BasedOnField A5}
  1,                                      !- Output Value 51 {BasedOnField A5}
  1,                                      !- Output Value 52 {BasedOnField A5}
  1,                                      !- Output Value 53 {BasedOnField A5}
  1,                                      !- Output Value 54 {BasedOnField A5}
  1,                                      !- Output Value 55 {BasedOnField A5}
  1,                                      !- Output Value 56 {BasedOnField A5}
  1,                                      !- Output Value 57 {BasedOnField A5}
  1,                                      !- Output Value 58 {BasedOnField A5}
  1,                                      !- Output Value 59 {BasedOnField A5}
  1,                                      !- Output Value 60 {BasedOnField A5}
  1,                                      !- Output Value 61 {BasedOnField A5}
  1,                                      !- Output Value 62 {BasedOnField A5}
  1,                                      !- Output Value 63 {BasedOnField A5}
  1,                                      !- Output Value 64 {BasedOnField A5}
  1,                                      !- Output Value 65 {BasedOnField A5}
  0.982,                                  !- Output Value 66 {BasedOnField A5}
  0.964,                                  !- Output Value 67 {BasedOnField A5}
  0.95,                                   !- Output Value 68 {BasedOnField A5}
  0.922,                                  !- Output Value 69 {BasedOnField A5}
  0.785,                                  !- Output Value 70 {BasedOnField A5}
  0.686,                                  !- Output Value 71 {BasedOnField A5}
  0.554,                                  !- Output Value 72 {BasedOnField A5}
  1,                                      !- Output Value 73 {BasedOnField A5}
  1,                                      !- Output Value 74 {BasedOnField A5}
  1,                                      !- Output Value 75 {BasedOnField A5}
  1,                                      !- Output Value 76 {BasedOnField A5}
  1,                                      !- Output Value 77 {BasedOnField A5}
  1,                                      !- Output Value 78 {BasedOnField A5}
  1,                                      !- Output Value 79 {BasedOnField A5}
  1,                                      !- Output Value 80 {BasedOnField A5}
  1,                                      !- Output Value 81 {BasedOnField A5}
  1,                                      !- Output Value 82 {BasedOnField A5}
  1,                                      !- Output Value 83 {BasedOnField A5}
  1,                                      !- Output Value 84 {BasedOnField A5}
  1,                                      !- Output Value 85 {BasedOnField A5}
  1,                                      !- Output Value 86 {BasedOnField A5}
  1,                                      !- Output Value 87 {BasedOnField A5}
  1,                                      !- Output Value 88 {BasedOnField A5}
  1,                                      !- Output Value 89 {BasedOnField A5}
  0.982,                                  !- Output Value 90 {BasedOnField A5}
  0.964,                                  !- Output Value 91 {BasedOnField A5}
  0.95,                                   !- Output Value 92 {BasedOnField A5}
  0.922,                                  !- Output Value 93 {BasedOnField A5}
  0.785,                                  !- Output Value 94 {BasedOnField A5}
  0.686,                                  !- Output Value 95 {BasedOnField A5}
  0.554,                                  !- Output Value 96 {BasedOnField A5}
  1,                                      !- Output Value 97 {BasedOnField A5}
  1,                                      !- Output Value 98 {BasedOnField A5}
  1,                                      !- Output Value 99 {BasedOnField A5}
  1,                                      !- Output Value 100 {BasedOnField A5}
  1,                                      !- Output Value 101 {BasedOnField A5}
  1,                                      !- Output Value 102 {BasedOnField A5}
  1,                                      !- Output Value 103 {BasedOnField A5}
  1,                                      !- Output Value 104 {BasedOnField A5}
  1,                                      !- Output Value 105 {BasedOnField A5}
  1,                                      !- Output Value 106 {BasedOnField A5}
  1,                                      !- Output Value 107 {BasedOnField A5}
  1,                                      !- Output Value 108 {BasedOnField A5}
  1,                                      !- Output Value 109 {BasedOnField A5}
  1,                                      !- Output Value 110 {BasedOnField A5}