
OS:Version,
  {8e1c8713-cb23-41c2-b2e5-9441c8675a16}, !- Handle
  3.2.0;                                  !- Version Identifier

OS:Site,
  {7f45631f-41a9-4dcb-9b0d-21645153ad46}, !- Handle
  Site 1,                                 !- Name
  39.7653,                                !- Latitude {deg}
  39.7653,                                !- Longitude {deg}
  ,                                       !- Time Zone {hr}
  ,                                       !- Elevation {m}
  ;                                       !- Terrain

OS:YearDescription,
  {a6dffb97-a2bf-4807-b15e-f7bbb3144c37}; !- Handle

OS:ClimateZones,
  {fdb458bb-f507-4232-8029-68e993cd3522}, !- Handle
  ASHRAE,                                 !- Climate Zone Institution Name 1
  ANSI/ASHRAE Standard 169,               !- Climate Zone Document Name 1
  2006,                                   !- Climate Zone Document Year 1
  ,                                       !- Climate Zone Value 1
  CEC,                                    !- Climate Zone Institution Name 2
  California Climate Zone Descriptions,   !- Climate Zone Document Name 2
  1995,                                   !- Climate Zone Document Year 2
  ;                                       !- Climate Zone Value 2

OS:Building,
  {160818ab-9866-4826-9940-2001e035d7cb}, !- Handle
  Building 1,                             !- Name
  ,                                       !- Building Sector Type
  -0,                                     !- North Axis {deg}
  ,                                       !- Nominal Floor to Floor Height {m}
  ,                                       !- Space Type Name
  ,                                       !- Default Construction Set Name
  ;                                       !- Default Schedule Set Name

OS:Facility,
  {0274b8bf-5ea4-49fb-80e6-f8993da59624}; !- Handle

OS:SimulationControl,
  {a36c5a2a-b3f8-489e-84af-b35c3cf1898e}; !- Handle

OS:Sizing:Parameters,
  {5327f064-fc8c-47b0-8358-641c4c7248f6}, !- Handle
  1.25,                                   !- Heating Sizing Factor
  1.15;                                   !- Cooling Sizing Factor

OS:Timestep,
  {76665edd-6b10-429b-9e12-0cf693ec2338}, !- Handle
  6;                                      !- Number of Timesteps per Hour

OS:ShadowCalculation,
  {8e7bfa70-5820-46a4-8d9d-04c798590978}, !- Handle
  PolygonClipping,                        !- Shading Calculation Method
  ,                                       !- Shading Calculation Update Frequency Method
  20,                                     !- Shading Calculation Update Frequency
  15000,                                  !- Maximum Figures in Shadow Overlap Calculations
  ,                                       !- Polygon Clipping Algorithm
  512,                                    !- Pixel Counting Resolution
  ,                                       !- Sky Diffuse Modeling Algorithm
  No,                                     !- Output External Shading Calculation Results
  No,                                     !- Disable Self-Shading Within Shading Zone Groups
  No;                                     !- Disable Self-Shading From Shading Zone Groups to Other Zones

OS:HeatBalanceAlgorithm,
  {14c62402-d6e8-4a71-967d-1832f3fcc725}, !- Handle
  ConductionTransferFunction,             !- Algorithm
  200;                                    !- Surface Temperature Upper Limit {C}

OS:RunPeriod,
  {eefe34fd-38c3-461c-9eca-17bf85af8756}, !- Handle
  Run Period 1,                           !- Name
  1,                                      !- Begin Month
  1,                                      !- Begin Day of Month
  12,                                     !- End Month
  31,                                     !- End Day of Month
  ,                                       !- Use Weather File Holidays and Special Days
  ,                                       !- Use Weather File Daylight Saving Period
  ,                                       !- Apply Weekend Holiday Rule
  ,                                       !- Use Weather File Rain Indicators
  ,                                       !- Use Weather File Snow Indicators
  ;                                       !- Number of Times Runperiod to be Repeated

OS:LifeCycleCost:Parameters,
  {e794e4d4-c688-4a3e-b5c0-adda1452d587}, !- Handle
  ,                                       !- Analysis Type
  ,                                       !- Discounting Convention
  ,                                       !- Inflation Approach
  ,                                       !- Real Discount Rate
  ,                                       !- Nominal Discount Rate
  ,                                       !- Inflation
  ,                                       !- Base Date Month
  ,                                       !- Base Date Year
  ,                                       !- Service Date Month
  ,                                       !- Service Date Year
  ;                                       !- Length of Study Period in Years

OS:SpaceType,
  {a3b83675-c39d-4a9a-9aae-ff482ffeb0f8}, !- Handle
  Classroom <16yrs_age NCC2019 Class 9b,  !- Name
  ,                                       !- Default Construction Set Name
  {b05e0df4-9357-4b55-9067-3127989abaea}, !- Default Schedule Set Name
  {ef07196c-b0f3-4173-93d5-15d6da7e998e}, !- Group Rendering Name
  {bac33412-400f-4aa6-8855-96959daf4224}; !- Design Specification Outdoor Air Object Name

OS:Rendering:Color,
  {ef07196c-b0f3-4173-93d5-15d6da7e998e}, !- Handle
  Rendering Color 1,                      !- Name
  30,                                     !- Rendering Red Value
  255,                                    !- Rendering Green Value
  144,                                    !- Rendering Blue Value
  255;                                    !- Rendering Alpha Value

OS:DesignSpecification:OutdoorAir,
  {bac33412-400f-4aa6-8855-96959daf4224}, !- Handle
  Classroom <16yrs_age 2012AS1668.2 Table A1 Ventilation, !- Name
  Maximum,                                !- Outdoor Air Method
  0.012,                                  !- Outdoor Air Flow per Person {m3/s-person}
  0.00035,                                !- Outdoor Air Flow per Floor Area {m3/s-m2}
  ,                                       !- Outdoor Air Flow Rate {m3/s}
  ,                                       !- Outdoor Air Flow Air Changes per Hour {1/hr}
  ;                                       !- Outdoor Air Flow Rate Fraction Schedule Name

OS:Schedule:Constant,
  {054a1eb8-2e18-4d02-97e9-cbcfa7ba4762}, !- Handle
  Always On Discrete,                     !- Name
  {ca0a5fdb-6417-4d40-9a36-f90a455c5f6e}, !- Schedule Type Limits Name
  1;                                      !- Value

OS:ScheduleTypeLimits,
  {ca0a5fdb-6417-4d40-9a36-f90a455c5f6e}, !- Handle
  OnOff,                                  !- Name
  0,                                      !- Lower Limit Value
  1,                                      !- Upper Limit Value
  Discrete,                               !- Numeric Type
  Availability;                           !- Unit Type

OS:AirLoopHVAC,
  {31e8886b-e2e3-4ddf-a2c0-3d41d903277e}, !- Handle
  Packaged Rooftop Air Conditioner,       !- Name
  ,                                       !- Controller List Name
  {054a1eb8-2e18-4d02-97e9-cbcfa7ba4762}, !- Availability Schedule
  {7a14f94b-2400-4308-ba6b-e5f978b4135c}, !- Availability Manager List Name
  autosize,                               !- Design Supply Air Flow Rate {m3/s}
  1,                                      !- Design Return Air Flow Fraction of Supply Air Flow
  ,                                       !- Branch List Name
  ,                                       !- Connector List Name
  {3c33cb84-971f-4e66-a7b4-43fb94af6aff}, !- Supply Side Inlet Node Name
  {9fd917dc-b623-487e-a243-62ddcdbb84ae}, !- Demand Side Outlet Node Name
  {a1e54a5e-3ff8-4e60-a787-9f1bfc41a9bf}, !- Demand Side Inlet Node A
  {a371041a-191a-49c3-95f7-dc695a5c5f96}, !- Supply Side Outlet Node A
  ,                                       !- Demand Side Inlet Node B
  ,                                       !- Supply Side Outlet Node B
  ,                                       !- Return Air Bypass Flow Temperature Setpoint Schedule Name
  {0c5df7ae-66ab-405f-844f-2aba5ae8e629}, !- Demand Mixer Name
  {b24b4a47-a831-4796-80d5-66a5b53946db}, !- Demand Splitter A Name
  ,                                       !- Demand Splitter B Name
  ;                                       !- Supply Splitter Name

OS:Node,
  {d9e9d039-53fe-4797-951f-3574b29e2cb2}, !- Handle
  Node 1,                                 !- Name
  {3c33cb84-971f-4e66-a7b4-43fb94af6aff}, !- Inlet Port
  {25ccdb0d-5d5d-42c0-a99e-4fbffd401733}; !- Outlet Port

OS:Node,
  {89c754f5-7202-4b29-bebe-4b4a0c393ed4}, !- Handle
  Node 2,                                 !- Name
  {cd7740ae-c71b-4010-b4f4-7a65de68b41c}, !- Inlet Port
  {a371041a-191a-49c3-95f7-dc695a5c5f96}; !- Outlet Port

OS:Connection,
  {3c33cb84-971f-4e66-a7b4-43fb94af6aff}, !- Handle
  {31e8886b-e2e3-4ddf-a2c0-3d41d903277e}, !- Source Object
  9,                                      !- Outlet Port
  {d9e9d039-53fe-4797-951f-3574b29e2cb2}, !- Target Object
  2;                                      !- Inlet Port

OS:Connection,
  {a371041a-191a-49c3-95f7-dc695a5c5f96}, !- Handle
  {89c754f5-7202-4b29-bebe-4b4a0c393ed4}, !- Source Object
  3,                                      !- Outlet Port
  {31e8886b-e2e3-4ddf-a2c0-3d41d903277e}, !- Target Object
  12;                                     !- Inlet Port

OS:Node,
  {ff7c458b-7f39-49e7-82ad-a8e985b0e51b}, !- Handle
  Node 3,                                 !- Name
  {a1e54a5e-3ff8-4e60-a787-9f1bfc41a9bf}, !- Inlet Port
  {da400da0-efe0-4ef9-b054-cfaac80ed84c}; !- Outlet Port

OS:Node,
  {8148b389-92ea-42bf-a404-fe0b4175743e}, !- Handle
  Node 4,                                 !- Name
  {b498407e-3fff-4fb2-8197-6eb1f40d0efc}, !- Inlet Port
  {9fd917dc-b623-487e-a243-62ddcdbb84ae}; !- Outlet Port

OS:Node,
  {f84c5f10-a308-4ec6-900f-1b8b273a45fc}, !- Handle
  Node 5,                                 !- Name
  {83e05785-26bb-46b5-b2ec-f996894a58ef}, !- Inlet Port
  {626ca5a0-80e4-4a3d-86d0-dda97ef2a053}; !- Outlet Port

OS:Connection,
  {a1e54a5e-3ff8-4e60-a787-9f1bfc41a9bf}, !- Handle
  {31e8886b-e2e3-4ddf-a2c0-3d41d903277e}, !- Source Object
  11,                                     !- Outlet Port
  {ff7c458b-7f39-49e7-82ad-a8e985b0e51b}, !- Target Object
  2;                                      !- Inlet Port

OS:Connection,
  {9fd917dc-b623-487e-a243-62ddcdbb84ae}, !- Handle
  {8148b389-92ea-42bf-a404-fe0b4175743e}, !- Source Object
  3,                                      !- Outlet Port
  {31e8886b-e2e3-4ddf-a2c0-3d41d903277e}, !- Target Object
  10;                                     !- Inlet Port

OS:AirLoopHVAC:ZoneSplitter,
  {b24b4a47-a831-4796-80d5-66a5b53946db}, !- Handle
  Air Loop HVAC Zone Splitter 1,          !- Name
  {da400da0-efe0-4ef9-b054-cfaac80ed84c}, !- Inlet Node Name
  {30ad7fdc-ab7c-4f7d-a866-16a71f29e33f}; !- Outlet Node Name 1

OS:AirLoopHVAC:ZoneMixer,
  {0c5df7ae-66ab-405f-844f-2aba5ae8e629}, !- Handle
  Air Loop HVAC Zone Mixer 1,             !- Name
  {b498407e-3fff-4fb2-8197-6eb1f40d0efc}, !- Outlet Node Name
  {626ca5a0-80e4-4a3d-86d0-dda97ef2a053}; !- Inlet Node Name 1

OS:Connection,
  {da400da0-efe0-4ef9-b054-cfaac80ed84c}, !- Handle
  {ff7c458b-7f39-49e7-82ad-a8e985b0e51b}, !- Source Object
  3,                                      !- Outlet Port
  {b24b4a47-a831-4796-80d5-66a5b53946db}, !- Target Object
  2;                                      !- Inlet Port

OS:Connection,
  {626ca5a0-80e4-4a3d-86d0-dda97ef2a053}, !- Handle
  {f84c5f10-a308-4ec6-900f-1b8b273a45fc}, !- Source Object
  3,                                      !- Outlet Port
  {0c5df7ae-66ab-405f-844f-2aba5ae8e629}, !- Target Object
  3;                                      !- Inlet Port

OS:Connection,
  {b498407e-3fff-4fb2-8197-6eb1f40d0efc}, !- Handle
  {0c5df7ae-66ab-405f-844f-2aba5ae8e629}, !- Source Object
  2,                                      !- Outlet Port
  {8148b389-92ea-42bf-a404-fe0b4175743e}, !- Target Object
  2;                                      !- Inlet Port

OS:Sizing:System,
  {4bad61d1-cde2-449e-915c-ed1f5cd022c1}, !- Handle
  {31e8886b-e2e3-4ddf-a2c0-3d41d903277e}, !- AirLoop Name
  Sensible,                               !- Type of Load to Size On
  Autosize,                               !- Design Outdoor Air Flow Rate {m3/s}
  1,                                      !- Central Heating Maximum System Air Flow Ratio
  7,                                      !- Preheat Design Temperature {C}
  0.008,                                  !- Preheat Design Humidity Ratio {kg-H2O/kg-Air}
  12.8,                                   !- Precool Design Temperature {C}
  0.008,                                  !- Precool Design Humidity Ratio {kg-H2O/kg-Air}
  12.8,                                   !- Central Cooling Design Supply Air Temperature {C}
  40,                                     !- Central Heating Design Supply Air Temperature {C}
  NonCoincident,                          !- Sizing Option
  Yes,                                    !- 100% Outdoor Air in Cooling
  Yes,                                    !- 100% Outdoor Air in Heating
  0.0085,                                 !- Central Cooling Design Supply Air Humidity Ratio {kg-H2O/kg-Air}
  0.008,                                  !- Central Heating Design Supply Air Humidity Ratio {kg-H2O/kg-Air}
  DesignDay,                              !- Cooling Design Air Flow Method
  0,                                      !- Cooling Design Air Flow Rate {m3/s}
  DesignDay,                              !- Heating Design Air Flow Method
  0,                                      !- Heating Design Air Flow Rate {m3/s}
  VentilationRateProcedure,               !- System Outdoor Air Method
  1,                                      !- Zone Maximum Outdoor Air Fraction {dimensionless}
  0.0099676501,                           !- Cooling Supply Air Flow Rate Per Floor Area {m3/s-m2}
  1,                                      !- Cooling Fraction of Autosized Cooling Supply Air Flow Rate
  3.9475456e-05,                          !- Cooling Supply Air Flow Rate Per Unit Cooling Capacity {m3/s-W}
  0.0099676501,                           !- Heating Supply Air Flow Rate Per Floor Area {m3/s-m2}
  1,                                      !- Heating Fraction of Autosized Heating Supply Air Flow Rate
  1,                                      !- Heating Fraction of Autosized Cooling Supply Air Flow Rate
  3.1588213e-05,                          !- Heating Supply Air Flow Rate Per Unit Heating Capacity {m3/s-W}
  CoolingDesignCapacity,                  !- Cooling Design Capacity Method
  autosize,                               !- Cooling Design Capacity {W}
  234.7,                                  !- Cooling Design Capacity Per Floor Area {W/m2}
  1,                                      !- Fraction of Autosized Cooling Design Capacity
  HeatingDesignCapacity,                  !- Heating Design Capacity Method
  autosize,                               !- Heating Design Capacity {W}
  157,                                    !- Heating Design Capacity Per Floor Area {W/m2}
  1,                                      !- Fraction of Autosized Heating Design Capacity
  OnOff;                                  !- Central Cooling Capacity Control Method

OS:AvailabilityManagerAssignmentList,
  {7a14f94b-2400-4308-ba6b-e5f978b4135c}, !- Handle
  Air Loop HVAC 1 AvailabilityManagerAssignmentList; !- Name

OS:Fan:ConstantVolume,
  {da48e408-b89e-40ae-92c3-8ea9e1c22a8f}, !- Handle
  Fan Constant Volume 1,                  !- Name
  {054a1eb8-2e18-4d02-97e9-cbcfa7ba4762}, !- Availability Schedule Name
  ,                                       !- Fan Total Efficiency
  500,                                    !- Pressure Rise {Pa}
  AutoSize,                               !- Maximum Flow Rate {m3/s}
  ,                                       !- Motor Efficiency
  ,                                       !- Motor In Airstream Fraction
  {d3af4924-94be-46c3-9175-01c6cd147528}, !- Air Inlet Node Name
  {cd7740ae-c71b-4010-b4f4-7a65de68b41c}, !- Air Outlet Node Name
  ;                                       !- End-Use Subcategory

OS:Coil:Heating:Gas,
  {214fb8b3-d744-40dd-a5ce-d8626fb77c63}, !- Handle
  Coil Heating Gas 1,                     !- Name
  {054a1eb8-2e18-4d02-97e9-cbcfa7ba4762}, !- Availability Schedule Name
  0.8,                                    !- Gas Burner Efficiency
  AutoSize,                               !- Nominal Capacity {W}
  {2208bbac-b8f8-4768-9c6f-b5e484fecb0f}, !- Air Inlet Node Name
  {80278fe4-bd54-4da5-ad02-af6243c802f3}, !- Air Outlet Node Name
  ,                                       !- Temperature Setpoint Node Name
  0,                                      !- Parasitic Electric Load {W}
  ,                                       !- Part Load Fraction Correlation Curve Name
  0;                                      !- Parasitic Gas Load {W}

OS:Coil:Cooling:DX:SingleSpeed,
  {ced1deed-2157-4a75-9669-2f7504b2f8b5}, !- Handle
  Coil Cooling DX Single Speed 1,         !- Name
  {054a1eb8-2e18-4d02-97e9-cbcfa7ba4762}, !- Availability Schedule Name
  autosize,                               !- Rated Total Cooling Capacity {W}
  autosize,                               !- Rated Sensible Heat Ratio
  3,                                      !- Rated COP {W/W}
  autosize,                               !- Rated Air Flow Rate {m3/s}
  773.3,                                  !- Rated Evaporator Fan Power Per Volume Flow Rate {W/(m3/s)}
  {00903f5d-f0c4-4a86-b1b0-4e5b5c63ff14}, !- Air Inlet Node Name
  {0237fda4-9603-400e-94e0-5426eb9c244b}, !- Air Outlet Node Name
  {133a236a-44db-4b4f-97a1-587365c9c685}, !- Total Cooling Capacity Function of Temperature Curve Name
  {3011e2bc-aa00-47b8-9469-928aafaa1463}, !- Total Cooling Capacity Function of Flow Fraction Curve Name
  {29061072-f05e-44a3-8822-bfa975659006}, !- Energy Input Ratio Function of Temperature Curve Name
  {cb426271-3469-4419-9432-c1072bb12e7e}, !- Energy Input Ratio Function of Flow Fraction Curve Name
  {8ba427c3-5c07-4ddb-91b1-59b5430fa327}, !- Part Load Fraction Correlation Curve Name
  -25,                                    !- Minimum Outdoor Dry-Bulb Temperature for Compressor Operation {C}
  ,                                       !- Nominal Time for Condensate Removal to Begin {s}
  ,                                       !- Ratio of Initial Moisture Evaporation Rate and Steady State Latent Capacity {dimensionless}
  ,                                       !- Maximum Cycling Rate {cycles/hr}
  ,                                       !- Latent Capacity Time Constant {s}
  ,                                       !- Condenser Air Inlet Node Name
  AirCooled,                              !- Condenser Type
  0,                                      !- Evaporative Condenser Effectiveness {dimensionless}
  Autosize,                               !- Evaporative Condenser Air Flow Rate {m3/s}
  Autosize,                               !- Evaporative Condenser Pump Rated Power Consumption {W}
  0,                                      !- Crankcase Heater Capacity {W}
  0,                                      !- Maximum Outdoor Dry-Bulb Temperature for Crankcase Heater Operation {C}
  ,                                       !- Supply Water Storage Tank Name
  ,                                       !- Condensate Collection Water Storage Tank Name
  0,                                      !- Basin Heater Capacity {W/K}
  10,                                     !- Basin Heater Setpoint Temperature {C}
  ;                                       !- Basin Heater Operating Schedule Name

OS:Curve:Biquadratic,
  {133a236a-44db-4b4f-97a1-587365c9c685}, !- Handle
  Curve Biquadratic 1,                    !- Name
  0.942587793,                            !- Coefficient1 Constant
  0.009543347,                            !- Coefficient2 x
  0.00068377,                             !- Coefficient3 x**2
  -0.011042676,                           !- Coefficient4 y
  5.249e-06,                              !- Coefficient5 y**2
  -9.72e-06,                              !- Coefficient6 x*y
  17,                                     !- Minimum Value of x
  22,                                     !- Maximum Value of x
  13,                                     !- Minimum Value of y
  46;                                     !- Maximum Value of y

OS:Curve:Quadratic,
  {3011e2bc-aa00-47b8-9469-928aafaa1463}, !- Handle
  Curve Quadratic 1,                      !- Name
  0.8,                                    !- Coefficient1 Constant
  0.2,                                    !- Coefficient2 x
  0,                                      !- Coefficient3 x**2
  0.5,                                    !- Minimum Value of x
  1.5;                                    !- Maximum Value of x

OS:Curve:Biquadratic,
  {29061072-f05e-44a3-8822-bfa975659006}, !- Handle
  Curve Biquadratic 2,                    !- Name
  0.342414409,                            !- Coefficient1 Constant
  0.034885008,                            !- Coefficient2 x
  -0.0006237,                             !- Coefficient3 x**2
  0.004977216,                            !- Coefficient4 y
  0.000437951,                            !- Coefficient5 y**2
  -0.000728028,                           !- Coefficient6 x*y
  17,                                     !- Minimum Value of x
  22,                                     !- Maximum Value of x
  13,                                     !- Minimum Value of y
  46;                                     !- Maximum Value of y

OS:Curve:Quadratic,
  {cb426271-3469-4419-9432-c1072bb12e7e}, !- Handle
  Curve Quadratic 2,                      !- Name
  1.1552,                                 !- Coefficient1 Constant
  -0.1808,                                !- Coefficient2 x
  0.0256,                                 !- Coefficient3 x**2
  0.5,                                    !- Minimum Value of x
  1.5;                                    !- Maximum Value of x

OS:Curve:Quadratic,
  {8ba427c3-5c07-4ddb-91b1-59b5430fa327}, !- Handle
  Curve Quadratic 3,                      !- Name
  0.85,                                   !- Coefficient1 Constant
  0.15,                                   !- Coefficient2 x
  0,                                      !- Coefficient3 x**2
  0,                                      !- Minimum Value of x
  1;                                      !- Maximum Value of x

OS:SetpointManager:SingleZone:Reheat,
  {065becc9-7551-4ce5-9f43-aedc75c98dff}, !- Handle
  Setpoint Manager Single Zone Reheat 1,  !- Name
  -99,                                    !- Minimum Supply Air Temperature {C}
  99,                                     !- Maximum Supply Air Temperature {C}
  ,                                       !- Control Zone Name
  {89c754f5-7202-4b29-bebe-4b4a0c393ed4}; !- Setpoint Node or NodeList Name

OS:Controller:OutdoorAir,
  {8fe3b013-fd13-4b3f-a16e-cb8f33ce4f34}, !- Handle
  Controller Outdoor Air 1,               !- Name
  ,                                       !- Relief Air Outlet Node Name
  ,                                       !- Return Air Node Name
  ,                                       !- Mixed Air Node Name
  ,                                       !- Actuator Node Name
  0,                                      !- Minimum Outdoor Air Flow Rate {m3/s}
  Autosize,                               !- Maximum Outdoor Air Flow Rate {m3/s}
  NoEconomizer,                           !- Economizer Control Type
  ModulateFlow,                           !- Economizer Control Action Type
  28,                                     !- Economizer Maximum Limit Dry-Bulb Temperature {C}
  64000,                                  !- Economizer Maximum Limit Enthalpy {J/kg}
  ,                                       !- Economizer Maximum Limit Dewpoint Temperature {C}
  ,                                       !- Electronic Enthalpy Limit Curve Name
  -100,                                   !- Economizer Minimum Limit Dry-Bulb Temperature {C}
  NoLockout,                              !- Lockout Type
  FixedMinimum,                           !- Minimum Limit Type
  ,                                       !- Minimum Outdoor Air Schedule Name
  ,                                       !- Minimum Fraction of Outdoor Air Schedule Name
  ,                                       !- Maximum Fraction of Outdoor Air Schedule Name
  {5d0f4d04-c969-4f93-b103-64dcaf1e897d}, !- Controller Mechanical Ventilation
  ,                                       !- Time of Day Economizer Control Schedule Name
  No,                                     !- High Humidity Control
  ,                                       !- Humidistat Control Zone Name
  ,                                       !- High Humidity Outdoor Air Flow Ratio
  ,                                       !- Control High Indoor Humidity Based on Outdoor Humidity Ratio
  BypassWhenWithinEconomizerLimits;       !- Heat Recovery Bypass Control Type

OS:Controller:MechanicalVentilation,
  {5d0f4d04-c969-4f93-b103-64dcaf1e897d}, !- Handle
  Controller Mechanical Ventilation 1,    !- Name
  {054a1eb8-2e18-4d02-97e9-cbcfa7ba4762}, !- Availability Schedule
  Yes,                                    !- Demand Controlled Ventilation
  ZoneSum;                                !- System Outdoor Air Method

OS:AirLoopHVAC:OutdoorAirSystem,
  {6250d8de-950e-4df3-adbd-856d2a8b9f76}, !- Handle
  Air Loop HVAC Outdoor Air System 1,     !- Name
  {8fe3b013-fd13-4b3f-a16e-cb8f33ce4f34}, !- Controller Name
  ,                                       !- Outdoor Air Equipment List Name
  ,                                       !- Availability Manager List Name
  {a66f66ad-b521-46ef-b000-cc258eb15ec2}, !- Mixed Air Node Name
  {513ff066-cb64-4649-84d1-21d5f8c2b0ed}, !- Outdoor Air Stream Node Name
  {9db4cd79-dcfc-474c-aeba-44d244903677}, !- Relief Air Stream Node Name
  {25ccdb0d-5d5d-42c0-a99e-4fbffd401733}; !- Return Air Stream Node Name

OS:Node,
  {97c5f38b-0e45-4877-bb45-b916002bf818}, !- Handle
  Node 6,                                 !- Name
  ,                                       !- Inlet Port
  {513ff066-cb64-4649-84d1-21d5f8c2b0ed}; !- Outlet Port

OS:Connection,
  {513ff066-cb64-4649-84d1-21d5f8c2b0ed}, !- Handle
  {97c5f38b-0e45-4877-bb45-b916002bf818}, !- Source Object
  3,                                      !- Outlet Port
  {6250d8de-950e-4df3-adbd-856d2a8b9f76}, !- Target Object
  6;                                      !- Inlet Port

OS:Node,
  {d8102e99-3e22-4b7c-8260-712cd0496d3d}, !- Handle
  Node 7,                                 !- Name
  {9db4cd79-dcfc-474c-aeba-44d244903677}, !- Inlet Port
  ;                                       !- Outlet Port

OS:Connection,
  {9db4cd79-dcfc-474c-aeba-44d244903677}, !- Handle
  {6250d8de-950e-4df3-adbd-856d2a8b9f76}, !- Source Object
  7,                                      !- Outlet Port
  {d8102e99-3e22-4b7c-8260-712cd0496d3d}, !- Target Object
  2;                                      !- Inlet Port

OS:Connection,
  {25ccdb0d-5d5d-42c0-a99e-4fbffd401733}, !- Handle
  {d9e9d039-53fe-4797-951f-3574b29e2cb2}, !- Source Object
  3,                                      !- Outlet Port
  {6250d8de-950e-4df3-adbd-856d2a8b9f76}, !- Target Object
  8;                                      !- Inlet Port

OS:Node,
  {df02dd2b-52aa-4d35-b30b-0ef1423acd58}, !- Handle
  Node 8,                                 !- Name
  {a66f66ad-b521-46ef-b000-cc258eb15ec2}, !- Inlet Port
  {00903f5d-f0c4-4a86-b1b0-4e5b5c63ff14}; !- Outlet Port

OS:Connection,
  {a66f66ad-b521-46ef-b000-cc258eb15ec2}, !- Handle
  {6250d8de-950e-4df3-adbd-856d2a8b9f76}, !- Source Object
  5,                                      !- Outlet Port
  {df02dd2b-52aa-4d35-b30b-0ef1423acd58}, !- Target Object
  2;                                      !- Inlet Port

OS:Connection,
  {00903f5d-f0c4-4a86-b1b0-4e5b5c63ff14}, !- Handle
  {df02dd2b-52aa-4d35-b30b-0ef1423acd58}, !- Source Object
  3,                                      !- Outlet Port
  {ced1deed-2157-4a75-9669-2f7504b2f8b5}, !- Target Object
  8;                                      !- Inlet Port

OS:Node,
  {7a560a0a-75f4-4e0b-9355-03f8d450a6e8}, !- Handle
  Node 9,                                 !- Name
  {0237fda4-9603-400e-94e0-5426eb9c244b}, !- Inlet Port
  {2208bbac-b8f8-4768-9c6f-b5e484fecb0f}; !- Outlet Port

OS:Connection,
  {0237fda4-9603-400e-94e0-5426eb9c244b}, !- Handle
  {ced1deed-2157-4a75-9669-2f7504b2f8b5}, !- Source Object
  9,                                      !- Outlet Port
  {7a560a0a-75f4-4e0b-9355-03f8d450a6e8}, !- Target Object
  2;                                      !- Inlet Port

OS:Connection,
  {2208bbac-b8f8-4768-9c6f-b5e484fecb0f}, !- Handle
  {7a560a0a-75f4-4e0b-9355-03f8d450a6e8}, !- Source Object
  3,                                      !- Outlet Port
  {214fb8b3-d744-40dd-a5ce-d8626fb77c63}, !- Target Object
  5;                                      !- Inlet Port

OS:Node,
  {d118d601-c73b-4476-8a87-eb8e759a6208}, !- Handle
  Node 10,                                !- Name
  {80278fe4-bd54-4da5-ad02-af6243c802f3}, !- Inlet Port
  {d3af4924-94be-46c3-9175-01c6cd147528}; !- Outlet Port

OS:Connection,
  {80278fe4-bd54-4da5-ad02-af6243c802f3}, !- Handle
  {214fb8b3-d744-40dd-a5ce-d8626fb77c63}, !- Source Object
  6,                                      !- Outlet Port
  {d118d601-c73b-4476-8a87-eb8e759a6208}, !- Target Object
  2;                                      !- Inlet Port

OS:Connection,
  {d3af4924-94be-46c3-9175-01c6cd147528}, !- Handle
  {d118d601-c73b-4476-8a87-eb8e759a6208}, !- Source Object
  3,                                      !- Outlet Port