
OS:Version,
  {d8e5a2de-1271-4521-bbde-bac2a9e69594}, !- Handle
  3.10.0;                                 !- Version Identifier

OS:Site,
  {dd2b8ffc-62bd-440d-a2cf-2f78f9cf842b}, !- Handle
  Site 1,                                 !- Name
  ,                                       !- Latitude {deg}
  ,                                       !- Longitude {deg}
  ,                                       !- Time Zone {hr}
  ,                                       !- Elevation {m}
  ;                                       !- Terrain

OS:YearDescription,
  {fcd74cb7-082d-47a2-a0f5-09712798f0bb}; !- Handle

OS:ClimateZones,
  {9a02a23b-a919-4556-907f-7b510143ea0b}, !- Handle
  ASHRAE,                                 !- Climate Zone Institution Name 1
  ANSI/ASHRAE Standard 169,               !- Climate Zone Document Name 1
  2006,                                   !- Climate Zone Document Year 1
  ,                                       !- Climate Zone Value 1
  CEC,                                    !- Climate Zone Institution Name 2
  California Climate Zone Descriptions,   !- Climate Zone Document Name 2
  1995,                                   !- Climate Zone Document Year 2
  ;                                       !- Climate Zone Value 2

OS:Building,
  {49f394f2-ad8f-47a5-98a3-6f071517af27}, !- Handle
  VRF Library - Mitsubishi,               !- Name
  ,                                       !- Building Sector Type
  ,                                       !- North Axis {deg}
  ,                                       !- Nominal Floor to Floor Height {m}
  ,                                       !- Space Type Name
  ,                                       !- Default Construction Set Name
  ;                                       !- Default Schedule Set Name

OS:Facility,
  {128efd20-f716-4a06-a177-06a44a54c8fc}; !- Handle

OS:SimulationControl,
  {4e72e501-a025-4288-8d0e-41d573d88867}; !- Handle

OS:Sizing:Parameters,
  {38c91567-8108-4ebd-81d6-e8fb7b2e81c2}, !- Handle
  1.25,                                   !- Heating Sizing Factor
  1.15;                                   !- Cooling Sizing Factor

OS:Timestep,
  {ebeb2086-bb71-435f-9c8e-e3dddbe65ccf}, !- Handle
  6;                                      !- Number of Timesteps per Hour

OS:ShadowCalculation,
  {e1026e38-8906-40d2-b315-1a40a2adaaf7}, !- Handle
  PolygonClipping,                        !- Shading Calculation Method
  ,                                       !- Shading Calculation Update Frequency Method
  20,                                     !- Shading Calculation Update Frequency
  15000,                                  !- Maximum Figures in Shadow Overlap Calculations
  ,                                       !- Polygon Clipping Algorithm
  512,                                    !- Pixel Counting Resolution
  ,                                       !- Sky Diffuse Modeling Algorithm
  No,                                     !- Output External Shading Calculation Results
  No,                                     !- Disable Self-Shading Within Shading Zone Groups
  No;                                     !- Disable Self-Shading From Shading Zone Groups to Other Zones

OS:HeatBalanceAlgorithm,
  {9245c642-bee7-4e94-92f2-bb1c3b1efb94}, !- Handle
  ConductionTransferFunction,             !- Algorithm
  200;                                    !- Surface Temperature Upper Limit {C}

OS:RunPeriod,
  {cc99fd0d-492a-49e2-86c1-6969d085eab5}, !- Handle
  Run Period 1,                           !- Name
  1,                                      !- Begin Month
  1,                                      !- Begin Day of Month
  12,                                     !- End Month
  31,                                     !- End Day of Month
  ,                                       !- Use Weather File Holidays and Special Days
  ,                                       !- Use Weather File Daylight Saving Period
  ,                                       !- Apply Weekend Holiday Rule
  ,                                       !- Use Weather File Rain Indicators
  ,                                       !- Use Weather File Snow Indicators
  ;                                       !- Number of Times Runperiod to be Repeated

OS:LifeCycleCost:Parameters,
  {3ca82c2a-8d03-4697-9d21-8e05fe9bae91}, !- Handle
  ,                                       !- Analysis Type
  ,                                       !- Discounting Convention
  ,                                       !- Inflation Approach
  ,                                       !- Real Discount Rate
  ,                                       !- Nominal Discount Rate
  ,                                       !- Inflation
  ,                                       !- Base Date Month
  ,                                       !- Base Date Year
  ,                                       !- Service Date Month
  ,                                       !- Service Date Year
  ;                                       !- Length of Study Period in Years

! Always On Discrete
OS:Schedule:Constant,
  {daa43977-fdc6-4078-8925-676b425434b3}, !- Handle
  Always On Discrete hvac_library,        !- Name
  {0fe30cdc-640a-431a-b12c-5ea15872d138}, !- Schedule Type Limits Name
  1;                                      !- Value

! Always OnOff Discrete Schedule Type Limits
OS:ScheduleTypeLimits,
  {0fe30cdc-640a-431a-b12c-5ea15872d138}, !- Handle
  OnOff hvac_library,                     !- Name
  0,                                      !- Lower Limit Value
  1,                                      !- Upper Limit Value
  Discrete,                               !- Numeric Type
  Availability;                           !- Unit Type

OS:AirConditioner:VariableRefrigerantFlow,
  {9b8f532e-659e-486e-819b-fa9bf106425d}, !- Handle
  Mitsubishi PUHY-EP72TNU/YNU-A1 NONDUCTED-VRF-OU, !- Name
  ,                                       !- Availability Schedule
  20200,                                  !- Gross Rated Total Cooling Capacity {W}
  4.08906882591093,                       !- Gross Rated Cooling COP {W/W}
  -5,                                     !- Minimum Outdoor Temperature in Cooling Mode {C}
  52,                                     !- Maximum Outdoor Temperature in Cooling Mode {C}
  {c35dff05-fa4d-4b83-be0f-c8633c6469b4}, !- Cooling Capacity Ratio Modifier Function of Low Temperature Curve Name
  ,                                       !- Cooling Capacity Ratio Boundary Curve Name
  ,                                       !- Cooling Capacity Ratio Modifier Function of High Temperature Curve Name
  {c5f53d5c-dfd0-4cef-b55a-2ae82358a2a1}, !- Cooling Energy Input Ratio Modifier Function of Low Temperature Curve Name
  ,                                       !- Cooling Energy Input Ratio Boundary Curve Name
  ,                                       !- Cooling Energy Input Ratio Modifier Function of High Temperature Curve Name
  {3adeacfc-6b88-4ab3-9ffb-04f49960be9d}, !- Cooling Energy Input Ratio Modifier Function of Low Part-Load Ratio Curve Name
  {3adeacfc-6b88-4ab3-9ffb-04f49960be9d}, !- Cooling Energy Input Ratio Modifier Function of High Part-Load Ratio Curve Name
  {fb9acc51-e105-404a-b81a-396fd79c879b}, !- Cooling Combination Ratio Correction Factor Curve Name
  {2f311b86-ecc6-4266-aea3-f24d5f64417e}, !- Cooling Part-Load Fraction Correlation Curve Name
  22300,                                  !- Gross Rated Heating Capacity {W}
  1.1039603960396,                        !- Rated Heating Capacity Sizing Ratio {W/W}
  4.81641468682505,                       !- Rated Heating COP {W/W}
  -25,                                    !- Minimum Outdoor Temperature in Heating Mode {C}
  15.5,                                   !- Maximum Outdoor Temperature in Heating Mode {C}
  {b91e1ebd-4b0b-4893-8673-057430af413d}, !- Heating Capacity Ratio Modifier Function of Low Temperature Curve Name
  ,                                       !- Heating Capacity Ratio Boundary Curve Name
  ,                                       !- Heating Capacity Ratio Modifier Function of High Temperature Curve Name
  {4fb5354e-e901-424c-b9dc-9905fc26a5f1}, !- Heating Energy Input Ratio Modifier Function of Low Temperature Curve Name
  ,                                       !- Heating Energy Input Ratio Boundary Curve Name
  ,                                       !- Heating Energy Input Ratio Modifier Function of High Temperature Curve Name
  WetBulbTemperature,                     !- Heating Performance Curve Outdoor Temperature Type
  {8bce9813-9b1a-4c7b-87c7-933afeb22c03}, !- Heating Energy Input Ratio Modifier Function of Low Part-Load Ratio Curve Name
  {8bce9813-9b1a-4c7b-87c7-933afeb22c03}, !- Heating Energy Input Ratio Modifier Function of High Part-Load Ratio Curve Name
  {9823d00a-4a80-4390-bd5f-e8b6bb5bfb41}, !- Heating Combination Ratio Correction Factor Curve Name
  {2f311b86-ecc6-4266-aea3-f24d5f64417e}, !- Heating Part-Load Fraction Correlation Curve Name
  0.15,                                   !- Minimum Heat Pump Part-Load Ratio {dimensionless}
  ,                                       !- Zone Name for Master Thermostat Location
  LoadPriority,                           !- Master Thermostat Priority Control Type
  ,                                       !- Thermostat Priority Schedule
  {901e54b3-220b-4241-84e0-7c280d78195a}, !- Zone Terminal Unit List
  No,                                     !- Heat Pump Waste Heat Recovery
  30,                                     !- Equivalent Piping Length used for Piping Correction Factor in Cooling Mode {m}
  10,                                     !- Vertical Height used for Piping Correction Factor {m}
  {78b51bcd-f080-4761-98b7-ee1315293c34}, !- Piping Correction Factor for Length in Cooling Mode Curve Name
  -0.000386,                              !- Piping Correction Factor for Height in Cooling Mode Coefficient {1/m}
  30,                                     !- Equivalent Piping Length used for Piping Correction Factor in Heating Mode {m}
  {ac0b8251-445f-4372-a7a1-7bc3a4c8afb3}, !- Piping Correction Factor for Length in Heating Mode Curve Name
  0,                                      !- Piping Correction Factor for Height in Heating Mode Coefficient {1/m}
  0,                                      !- Crankcase Heater Power per Compressor {W}
  1,                                      !- Number of Compressors {dimensionless}
  1,                                      !- Ratio of Compressor Size to Total Compressor Capacity {W/W}
  0,                                      !- Maximum Outdoor Dry-bulb Temperature for Crankcase Heater {C}
  ReverseCycle,                           !- Defrost Strategy
  OnDemand,                               !- Defrost Control
  {61d1f87c-7277-49e3-b1a5-49e2a9917aa2}, !- Defrost Energy Input Ratio Modifier Function of Temperature Curve Name
  0.058333,                               !- Defrost Time Period Fraction {dimensionless}
  0,                                      !- Resistive Defrost Heater Capacity {W}
  6,                                      !- Maximum Outdoor Dry-bulb Temperature for Defrost Operation {C}
  AirCooled,                              !- Condenser Type
  ,                                       !- Condenser Inlet Node
  ,                                       !- Condenser Outlet Node
  ,                                       !- Water Condenser Volume Flow Rate {m3/s}
  0.9,                                    !- Evaporative Condenser Effectiveness {dimensionless}
  ,                                       !- Evaporative Condenser Air Flow Rate {m3/s}
  ,                                       !- Evaporative Condenser Pump Rated Power Consumption {W}
  ,                                       !- Supply Water Storage Tank
  0,                                      !- Basin Heater Capacity {W/K}
  2,                                      !- Basin Heater Setpoint Temperature {C}
  ,                                       !- Basin Heater Operating Schedule
  Electricity,                            !- Fuel Type
  -4.9,                                   !- Minimum Outdoor Temperature in Heat Recovery Mode {C}
  15.49,                                  !- Maximum Outdoor Temperature in Heat Recovery Mode {C}
  {31f956e4-2ade-4030-9fc5-2cdfc71b1b99}, !- Heat Recovery Cooling Capacity Modifier Curve Name
  0.5,                                    !- Initial Heat Recovery Cooling Capacity Fraction {W/W}
  0.083,                                  !- Heat Recovery Cooling Capacity Time Constant {hr}
  {5a709c23-b002-4aa7-98a9-cb2f78193880}, !- Heat Recovery Cooling Energy Modifier Curve Name
  1,                                      !- Initial Heat Recovery Cooling Energy Fraction {W/W}
  0,                                      !- Heat Recovery Cooling Energy Time Constant {hr}
  {98a6e3cd-bd5e-4f4f-8657-5b6d2eaaa5b6}, !- Heat Recovery Heating Capacity Modifier Curve Name
  0.5,                                    !- Initial Heat Recovery Heating Capacity Fraction {W/W}
  0.083,                                  !- Heat Recovery Heating Capacity Time Constant {hr}
  {437d94fd-b7c7-44bd-b24f-8ca970a699a8}, !- Heat Recovery Heating Energy Modifier Curve Name
  0.5,                                    !- Initial Heat Recovery Heating Energy Fraction {W/W}
  0;                                      !- Heat Recovery Heating Energy Time Constant {hr}

OS:Table:Lookup,
  {c35dff05-fa4d-4b83-be0f-c8633c6469b4}, !- Handle
  Tbl Lookup PUHY-EP72TNU/YNU-A1_CCR_fn_T-Output, !- Name
  {25265b10-1ca4-4a36-86c7-d9a47f8720bb}, !- Independent Variable List Name
  DivisorOnly,                            !- Normalization Method
  1,                                      !- Normalization Divisor
  0.425,                                  !- Minimum Output {BasedOnField A5}
  1.098,                                  !- Maximum Output {BasedOnField A5}
  Dimensionless,                          !- Output Unit Type
  ,                                       !- External File Name
  ,                                       !- External File Column Number
  ,                                       !- External File Starting Row Number
  1.098,                                  !- Output Value 1 {BasedOnField A5}
  1.098,                                  !- Output Value 2 {BasedOnField A5}
  0.94,                                   !- Output Value 3 {BasedOnField A5}
  0.425,                                  !- Output Value 4 {BasedOnField A5}
  1.098,                                  !- Output Value 5 {BasedOnField A5}
  1.098,                                  !- Output Value 6 {BasedOnField A5}
  0.94,                                   !- Output Value 7 {BasedOnField A5}
  0.425,                                  !- Output Value 8 {BasedOnField A5}
  1.098,                                  !- Output Value 9 {BasedOnField A5}
  1.098,                                  !- Output Value 10 {BasedOnField A5}
  0.94,                                   !- Output Value 11 {BasedOnField A5}
  0.425,                                  !- Output Value 12 {BasedOnField A5}
  1.098,                                  !- Output Value 13 {BasedOnField A5}
  1.098,                                  !- Output Value 14 {BasedOnField A5}
  0.94,                                   !- Output Value 15 {BasedOnField A5}
  0.425,                                  !- Output Value 16 {BasedOnField A5}
  1.098,                                  !- Output Value 17 {BasedOnField A5}
  1.098,                                  !- Output Value 18 {BasedOnField A5}
  0.94,                                   !- Output Value 19 {BasedOnField A5}
  0.425;                                  !- Output Value 20 {BasedOnField A5}

OS:ModelObjectList,
  {25265b10-1ca4-4a36-86c7-d9a47f8720bb}, !- Handle
  Tbl Lookup PUHY-EP72TNU/YNU-A1_CCR_fn_T-IV_List, !- Name
  {d516d048-0c1d-461c-8a41-79517aee8049}, !- Model Object 1
  {100a5596-1605-49e6-a554-9b4b5194fcd5}; !- Model Object 2

OS:Table:Lookup,
  {c5f53d5c-dfd0-4cef-b55a-2ae82358a2a1}, !- Handle
  Tbl Lookup PUHY-EP72TNU/YNU-A1_CEIRM_fn_T-Output, !- Name
  {4b0d8cef-c861-44d1-b926-33aed1eeac0d}, !- Independent Variable List Name
  DivisorOnly,                            !- Normalization Method
  1,                                      !- Normalization Divisor
  0.214613486027372,                      !- Minimum Output {BasedOnField A5}
  1.27210144927536,                       !- Maximum Output {BasedOnField A5}
  Dimensionless,                          !- Output Unit Type
  ,                                       !- External File Name
  ,                                       !- External File Column Number
  ,                                       !- External File Starting Row Number
  0.571,                                  !- Output Value 1 {BasedOnField A5}
  0.609,                                  !- Output Value 2 {BasedOnField A5}
  0.612,                                  !- Output Value 3 {BasedOnField A5}
  0.612,                                  !- Output Value 4 {BasedOnField A5}
  0.614,                                  !- Output Value 5 {BasedOnField A5}
  0.616,                                  !- Output Value 6 {BasedOnField A5}
  0.617,                                  !- Output Value 7 {BasedOnField A5}
  0.617,                                  !- Output Value 8 {BasedOnField A5}
  1.034,                                  !- Output Value 9 {BasedOnField A5}
  0.215,                                  !- Output Value 10 {BasedOnField A5}
  0.612,                                  !- Output Value 11 {BasedOnField A5}
  0.648,                                  !- Output Value 12 {BasedOnField A5}
  0.652,                                  !- Output Value 13 {BasedOnField A5}
  0.654,                                  !- Output Value 14 {BasedOnField A5}
  0.654,                                  !- Output Value 15 {BasedOnField A5}
  0.656,                                  !- Output Value 16 {BasedOnField A5}
  0.665,                                  !- Output Value 17 {BasedOnField A5}
  0.658,                                  !- Output Value 18 {BasedOnField A5}
  1.099,                                  !- Output Value 19 {BasedOnField A5}
  0.288,                                  !- Output Value 20 {BasedOnField A5}
  0.697,                                  !- Output Value 21 {BasedOnField A5}
  0.733,                                  !- Output Value 22 {BasedOnField A5}
  0.734,                                  !- Output Value 23 {BasedOnField A5}
  0.734,                                  !- Output Value 24 {BasedOnField A5}
  0.737,                                  !- Output Value 25 {BasedOnField A5}
  0.737,                                  !- Output Value 26 {BasedOnField A5}
  0.762,                                  !- Output Value 27 {BasedOnField A5}
  0.757,                                  !- Output Value 28 {BasedOnField A5}
  1.179,                                  !- Output Value 29 {BasedOnField A5}
  0.37,                                   !- Output Value 30 {BasedOnField A5}
  0.698,                                  !- Output Value 31 {BasedOnField A5}
  0.738,                                  !- Output Value 32 {BasedOnField A5}
  0.742,                                  !- Output Value 33 {BasedOnField A5}
  0.743,                                  !- Output Value 34 {BasedOnField A5}
  0.747,                                  !- Output Value 35 {BasedOnField A5}
  0.757,                                  !- Output Value 36 {BasedOnField A5}
  0.782,                                  !- Output Value 37 {BasedOnField A5}
  0.771,                                  !- Output Value 38 {BasedOnField A5}
  1.183,                                  !- Output Value 39 {BasedOnField A5}
  0.429,                                  !- Output Value 40 {BasedOnField A5}
  0.77,                                   !- Output Value 41 {BasedOnField A5}
  0.806,                                  !- Output Value 42 {BasedOnField A5}
  0.808,                                  !- Output Value 43 {BasedOnField A5}
  0.808,                                  !- Output Value 44 {BasedOnField A5}
  0.819,                                  !- Output Value 45 {BasedOnField A5}
  0.827,                                  !- Output Value 46 {BasedOnField A5}
  0.856,                                  !- Output Value 47 {BasedOnField A5}
  0.847,                                  !- Output Value 48 {BasedOnField A5}
  1.236,                                  !- Output Value 49 {BasedOnField A5}
  0.429,                                  !- Output Value 50 {BasedOnField A5}
  0.782,                                  !- Output Value 51 {BasedOnField A5}
  0.82,                                   !- Output Value 52 {BasedOnField A5}
  0.822,                                  !- Output Value 53 {BasedOnField A5}
  0.84,                                   !- Output Value 54 {BasedOnField A5}
  0.85,                                   !- Output Value 55 {BasedOnField A5}
  0.856,                                  !- Output Value 56 {BasedOnField A5}
  0.886,                                  !- Output Value 57 {BasedOnField A5}
  0.872,                                  !- Output Value 58 {BasedOnField A5}
  1.252,                                  !- Output Value 59 {BasedOnField A5}
  0.46,                                   !- Output Value 60 {BasedOnField A5}
  0.796,                                  !- Output Value 61 {BasedOnField A5}
  0.834,                                  !- Output Value 62 {BasedOnField A5}
  0.854,                                  !- Output Value 63 {BasedOnField A5}
  0.872,                                  !- Output Value 64 {BasedOnField A5}
  0.88,                                   !- Output Value 65 {BasedOnField A5}
  0.888,                                  !- Output Value 66 {BasedOnField A5}
  0.913,                                  !- Output Value 67 {BasedOnField A5}
  0.903,                                  !- Output Value 68 {BasedOnField A5}
  1.272,                                  !- Output Value 69 {BasedOnField A5}
  0.471;                                  !- Output Value 70 {BasedOnField A5}

OS:ModelObjectList,
  {4b0d8cef-c861-44d1-b926-33aed1eeac0d}, !- Handle
  Tbl Lookup PUHY-EP72TNU/YNU-A1_CEIRM_fn_T-IV_List, !- Name
  {6fae160b-fc97-490e-be13-16e26f07f2eb}, !- Model Object 1
  {9de1fad4-bc25-485f-ab26-8051d6b84783}; !- Model Object 2

OS:Table:Lookup,
  {3adeacfc-6b88-4ab3-9ffb-04f49960be9d}, !- Handle
  Tbl Lookup PUHY-EP72TNU/YNU-A1_CEIRM_fn_LPLR-Output, !- Name
  {bbfca97d-33e8-484d-9954-294c926285b2}, !- Independent Variable List Name
  DivisorOnly,                            !- Normalization Method
  1,                                      !- Normalization Divisor
  0.277294684565913,                      !- Minimum Output {BasedOnField A5}
  0.555877634760213,                      !- Maximum Output {BasedOnField A5}
  Dimensionless,                          !- Output Unit Type
  ,                                       !- External File Name
  ,                                       !- External File Column Number
  ,                                       !- External File Starting Row Number
  0.277,                                  !- Output Value 1 {BasedOnField A5}
  0.277,                                  !- Output Value 2 {BasedOnField A5}
  0.293,                                  !- Output Value 3 {BasedOnField A5}
  0.348,                                  !- Output Value 4 {BasedOnField A5}
  0.424,                                  !- Output Value 5 {BasedOnField A5}
  0.541,                                  !- Output Value 6 {BasedOnField A5}
  0.556;                                  !- Output Value 7 {BasedOnField A5}

OS:ModelObjectList,
  {bbfca97d-33e8-484d-9954-294c926285b2}, !- Handle
  Tbl Lookup PUHY-EP72TNU/YNU-A1_CEIRM_fn_LPLR-IV_List, !- Name
  {0829257c-54d9-414b-a181-0effb0956cc7}; !- Model Object 1

OS:Curve:Linear,
  {fb9acc51-e105-404a-b81a-396fd79c879b}, !- Handle
  PUHY-EP72TNU/YNU-A1 CC_fn_CR_Curve,     !- Name
  0.680659152657769,                      !- Coefficient1 Constant
  0.319340847342231,                      !- Coefficient2 x
  1,                                      !- Minimum Value of x
  1.29938042933221,                       !- Maximum Value of x
  1,                                      !- Minimum Curve Output
  1.09560439998063;                       !- Maximum Curve Output

OS:Curve:Cubic,
  {2f311b86-ecc6-4266-aea3-f24d5f64417e}, !- Handle
  PUHY-EP72TNU/YNU-A1 C_H_PLF_Cor_Curve,  !- Name
  0.85,                                   !- Coefficient1 Constant
  0.15,                                   !- Coefficient2 x
  0,                                      !- Coefficient3 x**2
  0,                                      !- Coefficient4 x**3
  1,                                      !- Minimum Value of x
  1,                                      !- Maximum Value of x
  ,                                       !- Minimum Curve Output
  ,                                       !- Maximum Curve Output
  Dimensionless,                          !- Input Unit Type for X
  Dimensionless;                          !- Output Unit Type

OS:Table:Lookup,
  {b91e1ebd-4b0b-4893-8673-057430af413d}, !- Handle
  Tbl Lookup PUHY-EP72TNU/YNU-A1_HCR_fn_T-Output, !- Name
  {3ebaca38-51bb-4a29-87e1-b0f3a466ab4a}, !- Independent Variable List Name
  DivisorOnly,                            !- Normalization Method
  1,                                      !- Normalization Divisor
  0.48,                                   !- Minimum Output {BasedOnField A5}
  1,                                      !- Maximum Output {BasedOnField A5}
  Dimensionless,                          !- Output Unit Type
  ,                                       !- External File Name
  ,                                       !- External File Column Number
  ,                                       !- External File Starting Row Number
  0.48,                                   !- Output Value 1 {BasedOnField A5}
  0.6,                                    !- Output Value 2 {BasedOnField A5}
  0.72,                                   !- Output Value 3 {BasedOnField A5}
  1,                                      !- Output Value 4 {BasedOnField A5}
  1,                                      !- Output Value 5 {BasedOnField A5}
  0.48,                                   !- Output Value 6 {BasedOnField A5}
  0.6,                                    !- Output Value 7 {BasedOnField A5}
  0.72,                                   !- Output Value 8 {BasedOnField A5}
  1,                                      !- Output Value 9 {BasedOnField A5}
  1,                                      !- Output Value 10 {BasedOnField A5}
  0.48,                                   !- Output Value 11 {BasedOnField A5}
  0.6,                                    !- Output Value 12 {BasedOnField A5}
  0.72,                                   !- Output Value 13 {BasedOnField A5}
  1,                                      !- Output Value 14 {BasedOnField A5}
  1,                                      !- Output Value 15 {BasedOnField A5}
  0.48,                                   !- Output Value 16 {BasedOnField A5}
  0.6,                                    !- Output Value 17 {BasedOnField A5}
  0.72,                                   !- Output Value 18 {BasedOnField A5}
  1,                                      !- Output Value 19 {BasedOnField A5}
  1,                                      !- Output Value 20 {BasedOnField A5}
  0.48,                                   !- Output Value 21 {BasedOnField A5}
  0.6,                                    !- Output Value 22 {BasedOnField A5}
  0.72,                                   !- Output Value 23 {BasedOnField A5}
  1,                                      !- Output Value 24 {BasedOnField A5}
  1;                                      !- Output Value 25 {BasedOnField A5}

OS:ModelObjectList,
  {3ebaca38-51bb-4a29-87e1-b0f3a466ab4a}, !- Handle
  Tbl Lookup PUHY-EP72TNU/YNU-A1_HCR_fn_T-IV_List, !- Name
  {68b311c4-29fc-4983-9efd-ea53824dbfb6}, !- Model Object 1
  {f2ee2f2f-8313-4edf-8d08-89dc624c755a}; !- Model Object 2

OS:Table:Lookup,
  {4fb5354e-e901-424c-b9dc-9905fc26a5f1}, !- Handle
  Tbl Lookup PUHY-EP72TNU/YNU-A1_HEIRM_fn_T-Output, !- Name
  {e1b8f663-4b26-43e9-9ce4-172c9c294fd5}, !- Independent Variable List Name
  DivisorOnly,                            !- Normalization Method
  1,                                      !- Normalization Divisor
  0.58,                                   !- Minimum Output {BasedOnField A5}
  1.15,                                   !- Maximum Output {BasedOnField A5}
  Dimensionless,                          !- Output Unit Type
  ,                                       !- External File Name
  ,                                       !- External File Column Number
  ,                                       !- External File Starting Row Number
  0.89,                                   !- Output Value 1 {BasedOnField A5}
  1.02,                                   !- Output Value 2 {BasedOnField A5}
  1.06,                                   !- Output Value 3 {BasedOnField A5}
  1.09,                                   !- Output Value 4 {BasedOnField A5}
  1.12,                                   !- Output Value 5 {BasedOnField A5}
  1,                                      !- Output Value 6 {BasedOnField A5}
  0.8,                                    !- Output Value 7 {BasedOnField A5}
  0.89,                                   !- Output Value 8 {BasedOnField A5}
  1.02,                                   !- Output Value 9 {BasedOnField A5}
  1.06,                                   !- Output Value 10 {BasedOnField A5}
  1.09,                                   !- Output Value 11 {BasedOnField A5}