
OS:Version,
  {d8e5a2de-1271-4521-bbde-bac2a9e69594}, !- Handle
  3.10.0;                                 !- Version Identifier

OS:Site,
  {dd2b8ffc-62bd-440d-a2cf-2f78f9cf842b}, !- Handle
  Site 1,                                 !- Name
  ,                                       !- Latitude {deg}
  ,                                       !- Longitude {deg}
  ,                                       !- Time Zone {hr}
  ,                                       !- Elevation {m}
  ;                                       !- Terrain

OS:YearDescription,
  {fcd74cb7-082d-47a2-a0f5-09712798f0bb}; !- Handle

OS:ClimateZones,
  {9a02a23b-a919-4556-907f-7b510143ea0b}, !- Handle
  ASHRAE,                                 !- Climate Zone Institution Name 1
  ANSI/ASHRAE Standard 169,               !- Climate Zone Document Name 1
  2006,                                   !- Climate Zone Document Year 1
  ,                                       !- Climate Zone Value 1
  CEC,                                    !- Climate Zone Institution Name 2
  California Climate Zone Descriptions,   !- Climate Zone Document Name 2
  1995,                                   !- Climate Zone Document Year 2
  ;                                       !- Climate Zone Value 2

OS:Building,
  {49f394f2-ad8f-47a5-98a3-6f071517af27}, !- Handle
  VRF Library - Mitsubishi,                          !- Name
  ,                                       !- Building Sector Type
  ,                                       !- North Axis {deg}
  ,                                       !- Nominal Floor to Floor Height {m}
  ,                                       !- Space Type Name
  ,                                       !- Default Construction Set Name
  ;                                       !- Default Schedule Set Name

OS:Facility,
  {128efd20-f716-4a06-a177-06a44a54c8fc}; !- Handle

OS:SimulationControl,
  {4e72e501-a025-4288-8d0e-41d573d88867}; !- Handle

OS:Sizing:Parameters,
  {38c91567-8108-4ebd-81d6-e8fb7b2e81c2}, !- Handle
  1.25,                                   !- Heating Sizing Factor
  1.15;                                   !- Cooling Sizing Factor

OS:Timestep,
  {ebeb2086-bb71-435f-9c8e-e3dddbe65ccf}, !- Handle
  6;                                      !- Number of Timesteps per Hour

OS:ShadowCalculation,
  {e1026e38-8906-40d2-b315-1a40a2adaaf7}, !- Handle
  PolygonClipping,                        !- Shading Calculation Method
  ,                                       !- Shading Calculation Update Frequency Method
  20,                                     !- Shading Calculation Update Frequency
  15000,                                  !- Maximum Figures in Shadow Overlap Calculations
  ,                                       !- Polygon Clipping Algorithm
  512,                                    !- Pixel Counting Resolution
  ,                                       !- Sky Diffuse Modeling Algorithm
  No,                                     !- Output External Shading Calculation Results
  No,                                     !- Disable Self-Shading Within Shading Zone Groups
  No;                                     !- Disable Self-Shading From Shading Zone Groups to Other Zones

OS:HeatBalanceAlgorithm,
  {9245c642-bee7-4e94-92f2-bb1c3b1efb94}, !- Handle
  ConductionTransferFunction,             !- Algorithm
  200;                                    !- Surface Temperature Upper Limit {C}

OS:RunPeriod,
  {cc99fd0d-492a-49e2-86c1-6969d085eab5}, !- Handle
  Run Period 1,                           !- Name
  1,                                      !- Begin Month
  1,                                      !- Begin Day of Month
  12,                                     !- End Month
  31,                                     !- End Day of Month
  ,                                       !- Use Weather File Holidays and Special Days
  ,                                       !- Use Weather File Daylight Saving Period
  ,                                       !- Apply Weekend Holiday Rule
  ,                                       !- Use Weather File Rain Indicators
  ,                                       !- Use Weather File Snow Indicators
  ;                                       !- Number of Times Runperiod to be Repeated

OS:LifeCycleCost:Parameters,
  {3ca82c2a-8d03-4697-9d21-8e05fe9bae91}, !- Handle
  ,                                       !- Analysis Type
  ,                                       !- Discounting Convention
  ,                                       !- Inflation Approach
  ,                                       !- Real Discount Rate
  ,                                       !- Nominal Discount Rate
  ,                                       !- Inflation
  ,                                       !- Base Date Month
  ,                                       !- Base Date Year
  ,                                       !- Service Date Month
  ,                                       !- Service Date Year
  ;                                       !- Length of Study Period in Years

OS:ZoneHVAC:TerminalUnit:VariableRefrigerantFlow,
  {948b0bd4-7d69-425c-8cf9-b16afa7e31dc}, !- Handle
  Mitsubishi PLFY_EP30NEMU1_E_TH NONDUCTED VRF-TU, !- Name
  {daa43977-fdc6-4078-8925-676b425434b3}, !- Terminal Unit Availability schedule
  ,                                       !- Terminal Unit Air Inlet Node
  ,                                       !- Terminal Unit Air Outlet Node
  0.3832213238784,                        !- Supply Air Flow Rate During Cooling Operation {m3/s}
  0.3001585738752,                        !- Supply Air Flow Rate When No Cooling is Needed {m3/s}
  0.3832213238784,                        !- Supply Air Flow Rate During Heating Operation {m3/s}
  0.3001585738752,                        !- Supply Air Flow Rate When No Heating is Needed {m3/s}
  autosize,                               !- Outdoor Air Flow Rate During Cooling Operation {m3/s}
  autosize,                               !- Outdoor Air Flow Rate During Heating Operation {m3/s}
  autosize,                               !- Outdoor Air Flow Rate When No Cooling or Heating is Needed {m3/s}
  {daa43977-fdc6-4078-8925-676b425434b3}, !- Supply Air Fan Operating Mode Schedule
  DrawThrough,                            !- Supply Air Fan Placement
  {5d6b081b-258e-46e2-aeda-22d0ba620b93}, !- Supply Air Fan
  ,                                       !- Outside Air Mixer
  {e1a90b16-fab4-4dd4-8e84-a6831c7239a2}, !- Cooling Coil
  {e31df88d-8e58-4a17-b0b1-3b04c51ad5d9}, !- Heating Coil
  30,                                     !- Zone Terminal Unit On Parasitic Electric Energy Use {W}
  20,                                     !- Zone Terminal Unit Off Parasitic Electric Energy Use {W}
  1.13333333333333,                       !- Rated Total Heating Capacity Sizing Ratio {W/W}
  ,                                       !- Availability Manager List Name
  ,                                       !- Design Specification ZoneHVAC Sizing Object Name
  ,                                       !- Supplemental Heating Coil Name
  ,                                       !- Maximum Supply Air Temperature from Supplemental Heater {C}
  21;                                     !- Maximum Outdoor Dry-Bulb Temperature for Supplemental Heater Operation {C}

! Always On Discrete
OS:Schedule:Constant,
  {daa43977-fdc6-4078-8925-676b425434b3}, !- Handle
  Always On Discrete hvac_library,        !- Name
  {0fe30cdc-640a-431a-b12c-5ea15872d138}, !- Schedule Type Limits Name
  1;                                      !- Value

! Always OnOff Discrete Schedule Type Limits
OS:ScheduleTypeLimits,
  {0fe30cdc-640a-431a-b12c-5ea15872d138}, !- Handle
  OnOff hvac_library,                     !- Name
  0,                                      !- Lower Limit Value
  1,                                      !- Upper Limit Value
  Discrete,                               !- Numeric Type
  Availability;                           !- Unit Type

OS:Fan:SystemModel,
  {5d6b081b-258e-46e2-aeda-22d0ba620b93}, !- Handle
  Mitsubishi PLFY_EP30NEMU1_E_TH FAN,     !- Name
  {daa43977-fdc6-4078-8925-676b425434b3}, !- Availability Schedule Name
  ,                                       !- Air Inlet Node Name
  ,                                       !- Air Outlet Node Name
  0.3832213238784,                        !- Design Maximum Air Flow Rate {m3/s}
  Continuous,                             !- Speed Control Method
  0.783251231527094,                      !- Electric Power Minimum Flow Rate Fraction
  250,                                    !- Design Pressure Rise {Pa}
  0.9,                                    !- Motor Efficiency
  1,                                      !- Motor In Air Stream Fraction
  133.333333333333,                       !- Design Electric Power Consumption {W}
  PowerPerFlow,                           !- Design Power Sizing Method
  347.927750950626,                       !- Electric Power Per Unit Flow Rate {W/(m3/s)}
  1.66667,                                !- Electric Power Per Unit Flow Rate Per Unit Pressure {W-s/m3-Pa}
  0.7,                                    !- Fan Total Efficiency
  {38f859a2-150f-4bad-be65-6be539235b00}, !- Electric Power Function of Flow Fraction Curve Name
  ,                                       !- Night Ventilation Mode Pressure Rise {Pa}
  ,                                       !- Night Ventilation Mode Flow Fraction
  ,                                       !- Motor Loss Zone Name
  0.5,                                    !- Motor Loss Radiative Fraction
  ;                                       !- End-Use Subcategory

OS:Curve:Quartic,
  {38f859a2-150f-4bad-be65-6be539235b00}, !- Handle
  PLFY_EP30NEMU1_E_TH Fan Curve,          !- Name
  0.040759894,                            !- Coefficient1 Constant
  0.08804497,                             !- Coefficient2 x
  -0.07292612,                            !- Coefficient3 x**2
  0.943739823,                            !- Coefficient4 x**3
  0,                                      !- Coefficient5 x**4
  0,                                      !- Minimum Value of x
  1,                                      !- Maximum Value of x
  0,                                      !- Minimum Curve Output
  1,                                      !- Maximum Curve Output
  Dimensionless,                          !- Input Unit Type for X
  Dimensionless;                          !- Output Unit Type

OS:Coil:Cooling:DX:VariableRefrigerantFlow,
  {e1a90b16-fab4-4dd4-8e84-a6831c7239a2}, !- Handle
  PLFY_EP30NEMU1_E_TH Cooling Coil,       !- Name
  {daa43977-fdc6-4078-8925-676b425434b3}, !- Availability Schedule
  8792.13210516667,                       !- Rated Total Cooling Capacity {W}
  0.726,                                  !- Rated Sensible Heat Ratio
  0.3832213238784,                        !- Rated Air Flow Rate {m3/s}
  {c4aefaab-eafa-48ed-b315-1279e9569dd8}, !- Cooling Capacity Ratio Modifier Function of Temperature Curve
  {8f6cfcdc-ad8f-407f-9b21-75e68445c7b6}, !- Cooling Capacity Modifier Curve Function of Flow Fraction
  ,                                       !- Coil Air Inlet Node
  ;                                       !- Coil Air Outlet Node

OS:Table:Lookup,
  {c4aefaab-eafa-48ed-b315-1279e9569dd8}, !- Handle
  Tbl Lookup PLFY_EP30NEMU1_E_TH_CCR_fn_T-Output, !- Name
  {dc079a21-5f22-47d3-a7cb-a2ae9e1eee27}, !- Independent Variable List Name
  DivisorOnly,                            !- Normalization Method
  1,                                      !- Normalization Divisor
  0.8823357627552,                        !- Minimum Output {BasedOnField A5}
  1.13284672723046,                       !- Maximum Output {BasedOnField A5}
  Dimensionless,                          !- Output Unit Type
  ,                                       !- External File Name
  ,                                       !- External File Column Number
  ,                                       !- External File Starting Row Number
  0.8823357627552,                        !- Output Value 1 {BasedOnField A5}
  0.909197093247591,                      !- Output Value 2 {BasedOnField A5}
  0.965255484910706,                      !- Output Value 3 {BasedOnField A5}
  1.00029197970015,                       !- Output Value 4 {BasedOnField A5}
  1.01722626769457,                       !- Output Value 5 {BasedOnField A5}
  1.06569345446093,                       !- Output Value 6 {BasedOnField A5}
  1.13284672723046;                       !- Output Value 7 {BasedOnField A5}

OS:ModelObjectList,
  {dc079a21-5f22-47d3-a7cb-a2ae9e1eee27}, !- Handle
  Tbl Lookup PLFY_EP30NEMU1_E_TH_CCR_fn_T-IV_List, !- Name
  {b95ff32e-f23e-4ea7-94ec-39227d304b9a}; !- Model Object 1

OS:Table:IndependentVariable,
  {b95ff32e-f23e-4ea7-94ec-39227d304b9a}, !- Handle
  Tbl Lookup PLFY_EP30NEMU1_E_TH_CCR_fn_T-Input_0, !- Name
  Linear,                                 !- Interpolation Method
  Constant,                               !- Extrapolation Method
  15,                                     !- Minimum Value {BasedOnField A5}
  24.013323870851,                        !- Maximum Value {BasedOnField A5}
  ,                                       !- Normalization Reference Value {BasedOnField A5}
  Temperature,                            !- Unit Type
  ,                                       !- External File Name
  ,                                       !- External File Column Number
  ,                                       !- External File Starting Row Number
  15,                                     !- Value 1
  16.0592154079662,                       !- Value 2
  17.8512214513954,                       !- Value 3
  19.4034048333542,                       !- Value 4
  20.6158404868084,                       !- Value 5
  22.1880096750436,                       !- Value 6
  24.013323870851;                        !- Value 7

OS:Curve:Quadratic,
  {8f6cfcdc-ad8f-407f-9b21-75e68445c7b6}, !- Handle
  PLFY_EP30NEMU1_E_TH Curve_CCR_fn_FF,    !- Name
  0.8,                                    !- Coefficient1 Constant
  0.2,                                    !- Coefficient2 x
  0,                                      !- Coefficient3 x**2
  0.5,                                    !- Minimum Value of x
  1.5,                                    !- Maximum Value of x
  ,                                       !- Minimum Curve Output
  ,                                       !- Maximum Curve Output
  ,                                       !- Input Unit Type for X
  ;                                       !- Output Unit Type

OS:Coil:Heating:DX:VariableRefrigerantFlow,
  {e31df88d-8e58-4a17-b0b1-3b04c51ad5d9}, !- Handle
  PLFY_EP30NEMU1_E_TH Heating Coil,       !- Name
  {daa43977-fdc6-4078-8925-676b425434b3}, !- Availability Schedule
  9964.41638585555,                       !- Rated Total Heating Capacity {W}
  0.3832213238784,                        !- Rated Air Flow Rate {m3/s}
  ,                                       !- Coil Air Inlet Node
  ,                                       !- Coil Air Outlet Node
  {8ada8fa6-645a-4d64-b519-c4c4ec788fd8}, !- Heating Capacity Ratio Modifier Function of Temperature Curve
  {3fba2936-0cef-4624-9b06-155d70da9816}; !- Heating Capacity Modifier Function of Flow Fraction Curve

OS:Table:Lookup,
  {8ada8fa6-645a-4d64-b519-c4c4ec788fd8}, !- Handle
  Tbl Lookup PLFY_EP30NEMU1_E_TH_HCR_fn_T-Output, !- Name
  {6428130f-2065-4593-b424-b1dd905459e4}, !- Independent Variable List Name
  DivisorOnly,                            !- Normalization Method
  1,                                      !- Normalization Divisor
  0.709756099963766,                      !- Minimum Output {BasedOnField A5}
  1.01032997274368,                       !- Maximum Output {BasedOnField A5}
  Dimensionless,                          !- Output Unit Type
  ,                                       !- External File Name
  ,                                       !- External File Column Number
  ,                                       !- External File Starting Row Number
  1.01032997274368,                       !- Output Value 1 {BasedOnField A5}
  1.0074605431678,                        !- Output Value 2 {BasedOnField A5}
  1.00243903320047,                       !- Output Value 3 {BasedOnField A5}
  0.999569570786454,                      !- Output Value 4 {BasedOnField A5}
  0.904160684378377,                      !- Output Value 5 {BasedOnField A5}
  0.800860792750809,                      !- Output Value 6 {BasedOnField A5}
  0.709756099963766;                      !- Output Value 7 {BasedOnField A5}

OS:ModelObjectList,
  {6428130f-2065-4593-b424-b1dd905459e4}, !- Handle
  Tbl Lookup PLFY_EP30NEMU1_E_TH_HCR_fn_T-IV_List, !- Name
  {ecdb20c4-641c-49d0-bee8-4c0d2b9b91a5}; !- Model Object 1

OS:Table:IndependentVariable,
  {ecdb20c4-641c-49d0-bee8-4c0d2b9b91a5}, !- Handle
  Tbl Lookup PLFY_EP30NEMU1_E_TH_HCR_fn_T-Input_0, !- Name
  Linear,                                 !- Interpolation Method
  Constant,                               !- Extrapolation Method
  15,                                     !- Minimum Value {BasedOnField A5}
  27,                                     !- Maximum Value {BasedOnField A5}
  ,                                       !- Normalization Reference Value {BasedOnField A5}
  Temperature,                            !- Unit Type
  ,                                       !- External File Name
  ,                                       !- External File Column Number
  ,                                       !- External File Starting Row Number
  15,                                     !- Value 1
  16.9956234991212,                       !- Value 2
  18.9824939964849,                       !- Value 3
  21.1006563148644,                       !- Value 4
  22.9824939964849,                       !- Value 5
  24.9956226977844,                       !- Value 6
  27;                                     !- Value 7

OS:Curve:Quadratic,
  {3fba2936-0cef-4624-9b06-155d70da9816}, !- Handle
  PLFY_EP30NEMU1_E_TH Curve_HCR_fn_FF,    !- Name
  0.8,                                    !- Coefficient1 Constant
  0.2,                                    !- Coefficient2 x
  0,                                      !- Coefficient3 x**2
  0.5,                                    !- Minimum Value of x
  1.5,                                    !- Maximum Value of x
  ,                                       !- Minimum Curve Output
  ,                                       !- Maximum Curve Output
  ,                                       !- Input Unit Type for X
  ;                                       !- Output Unit Type

OS:AirConditioner:VariableRefrigerantFlow,
  {9b8f532e-659e-486e-819b-fa9bf106425d}, !- Handle
  Mitsubishi PUHY-EP72TNU/YNU-A1 NONDUCTED-VRF-OU, !- Name
  ,                                       !- Availability Schedule
  20200,                                  !- Gross Rated Total Cooling Capacity {W}
  4.08906882591093,                       !- Gross Rated Cooling COP {W/W}
  -5,                                     !- Minimum Outdoor Temperature in Cooling Mode {C}
  52,                                     !- Maximum Outdoor Temperature in Cooling Mode {C}
  {c35dff05-fa4d-4b83-be0f-c8633c6469b4}, !- Cooling Capacity Ratio Modifier Function of Low Temperature Curve Name
  ,                                       !- Cooling Capacity Ratio Boundary Curve Name
  ,                                       !- Cooling Capacity Ratio Modifier Function of High Temperature Curve Name
  {c5f53d5c-dfd0-4cef-b55a-2ae82358a2a1}, !- Cooling Energy Input Ratio Modifier Function of Low Temperature Curve Name
  ,                                       !- Cooling Energy Input Ratio Boundary Curve Name
  ,                                       !- Cooling Energy Input Ratio Modifier Function of High Temperature Curve Name
  {3adeacfc-6b88-4ab3-9ffb-04f49960be9d}, !- Cooling Energy Input Ratio Modifier Function of Low Part-Load Ratio Curve Name
  {3adeacfc-6b88-4ab3-9ffb-04f49960be9d}, !- Cooling Energy Input Ratio Modifier Function of High Part-Load Ratio Curve Name
  {fb9acc51-e105-404a-b81a-396fd79c879b}, !- Cooling Combination Ratio Correction Factor Curve Name
  {2f311b86-ecc6-4266-aea3-f24d5f64417e}, !- Cooling Part-Load Fraction Correlation Curve Name
  22300,                                  !- Gross Rated Heating Capacity {W}
  1.1039603960396,                        !- Rated Heating Capacity Sizing Ratio {W/W}
  4.81641468682505,                       !- Rated Heating COP {W/W}
  -25,                                    !- Minimum Outdoor Temperature in Heating Mode {C}
  15.5,                                   !- Maximum Outdoor Temperature in Heating Mode {C}
  {b91e1ebd-4b0b-4893-8673-057430af413d}, !- Heating Capacity Ratio Modifier Function of Low Temperature Curve Name
  ,                                       !- Heating Capacity Ratio Boundary Curve Name
  ,                                       !- Heating Capacity Ratio Modifier Function of High Temperature Curve Name
  {4fb5354e-e901-424c-b9dc-9905fc26a5f1}, !- Heating Energy Input Ratio Modifier Function of Low Temperature Curve Name
  ,                                       !- Heating Energy Input Ratio Boundary Curve Name
  ,                                       !- Heating Energy Input Ratio Modifier Function of High Temperature Curve Name
  WetBulbTemperature,                     !- Heating Performance Curve Outdoor Temperature Type
  {8bce9813-9b1a-4c7b-87c7-933afeb22c03}, !- Heating Energy Input Ratio Modifier Function of Low Part-Load Ratio Curve Name
  {8bce9813-9b1a-4c7b-87c7-933afeb22c03}, !- Heating Energy Input Ratio Modifier Function of High Part-Load Ratio Curve Name
  {9823d00a-4a80-4390-bd5f-e8b6bb5bfb41}, !- Heating Combination Ratio Correction Factor Curve Name
  {2f311b86-ecc6-4266-aea3-f24d5f64417e}, !- Heating Part-Load Fraction Correlation Curve Name
  0.15,                                   !- Minimum Heat Pump Part-Load Ratio {dimensionless}
  ,                                       !- Zone Name for Master Thermostat Location
  LoadPriority,                           !- Master Thermostat Priority Control Type
  ,                                       !- Thermostat Priority Schedule
  {901e54b3-220b-4241-84e0-7c280d78195a}, !- Zone Terminal Unit List
  No,                                     !- Heat Pump Waste Heat Recovery
  30,                                     !- Equivalent Piping Length used for Piping Correction Factor in Cooling Mode {m}
  10,                                     !- Vertical Height used for Piping Correction Factor {m}
  {78b51bcd-f080-4761-98b7-ee1315293c34}, !- Piping Correction Factor for Length in Cooling Mode Curve Name
  -0.000386,                              !- Piping Correction Factor for Height in Cooling Mode Coefficient {1/m}
  30,                                     !- Equivalent Piping Length used for Piping Correction Factor in Heating Mode {m}
  {ac0b8251-445f-4372-a7a1-7bc3a4c8afb3}, !- Piping Correction Factor for Length in Heating Mode Curve Name
  0,                                      !- Piping Correction Factor for Height in Heating Mode Coefficient {1/m}
  0,                                      !- Crankcase Heater Power per Compressor {W}
  1,                                      !- Number of Compressors {dimensionless}
  1,                                      !- Ratio of Compressor Size to Total Compressor Capacity {W/W}
  0,                                      !- Maximum Outdoor Dry-bulb Temperature for Crankcase Heater {C}
  ReverseCycle,                           !- Defrost Strategy
  OnDemand,                               !- Defrost Control
  {61d1f87c-7277-49e3-b1a5-49e2a9917aa2}, !- Defrost Energy Input Ratio Modifier Function of Temperature Curve Name
  0.058333,                               !- Defrost Time Period Fraction {dimensionless}
  0,                                      !- Resistive Defrost Heater Capacity {W}
  6,                                      !- Maximum Outdoor Dry-bulb Temperature for Defrost Operation {C}
  AirCooled,                              !- Condenser Type
  ,                                       !- Condenser Inlet Node
  ,                                       !- Condenser Outlet Node
  ,                                       !- Water Condenser Volume Flow Rate {m3/s}
  0.9,                                    !- Evaporative Condenser Effectiveness {dimensionless}
  ,                                       !- Evaporative Condenser Air Flow Rate {m3/s}
  ,                                       !- Evaporative Condenser Pump Rated Power Consumption {W}
  ,                                       !- Supply Water Storage Tank
  0,                                      !- Basin Heater Capacity {W/K}
  2,                                      !- Basin Heater Setpoint Temperature {C}
  ,                                       !- Basin Heater Operating Schedule
  Electricity,                            !- Fuel Type
  -4.9,                                   !- Minimum Outdoor Temperature in Heat Recovery Mode {C}
  15.49,                                  !- Maximum Outdoor Temperature in Heat Recovery Mode {C}
  {31f956e4-2ade-4030-9fc5-2cdfc71b1b99}, !- Heat Recovery Cooling Capacity Modifier Curve Name
  0.5,                                    !- Initial Heat Recovery Cooling Capacity Fraction {W/W}
  0.083,                                  !- Heat Recovery Cooling Capacity Time Constant {hr}
  {5a709c23-b002-4aa7-98a9-cb2f78193880}, !- Heat Recovery Cooling Energy Modifier Curve Name
  1,                                      !- Initial Heat Recovery Cooling Energy Fraction {W/W}
  0,                                      !- Heat Recovery Cooling Energy Time Constant {hr}
  {98a6e3cd-bd5e-4f4f-8657-5b6d2eaaa5b6}, !- Heat Recovery Heating Capacity Modifier Curve Name
  0.5,                                    !- Initial Heat Recovery Heating Capacity Fraction {W/W}
  0.083,                                  !- Heat Recovery Heating Capacity Time Constant {hr}
  {437d94fd-b7c7-44bd-b24f-8ca970a699a8}, !- Heat Recovery Heating Energy Modifier Curve Name
  0.5,                                    !- Initial Heat Recovery Heating Energy Fraction {W/W}
  0;                                      !- Heat Recovery Heating Energy Time Constant {hr}

OS:Table:Lookup,
  {c35dff05-fa4d-4b83-be0f-c8633c6469b4}, !- Handle
  Tbl Lookup PUHY-EP72TNU/YNU-A1_CCR_fn_T-Output, !- Name
  {25265b10-1ca4-4a36-86c7-d9a47f8720bb}, !- Independent Variable List Name
  DivisorOnly,                            !- Normalization Method
  1,                                      !- Normalization Divisor
  0.425,                                  !- Minimum Output {BasedOnField A5}
  1.098,                                  !- Maximum Output {BasedOnField A5}
  Dimensionless,                          !- Output Unit Type
  ,                                       !- External File Name
  ,                                       !- External File Column Number
  ,                                       !- External File Starting Row Number
  1.098,                                  !- Output Value 1 {BasedOnField A5}
  1.098,                                  !- Output Value 2 {BasedOnField A5}
  0.94,                                   !- Output Value 3 {BasedOnField A5}
  0.425,                                  !- Output Value 4 {BasedOnField A5}
  1.098,                                  !- Output Value 5 {BasedOnField A5}
  1.098,                                  !- Output Value 6 {BasedOnField A5}
  0.94,                                   !- Output Value 7 {BasedOnField A5}
  0.425,                                  !- Output Value 8 {BasedOnField A5}
  1.098,                                  !- Output Value 9 {BasedOnField A5}
  1.098,                                  !- Output Value 10 {BasedOnField A5}
  0.94,                                   !- Output Value 11 {BasedOnField A5}
  0.425,                                  !- Output Value 12 {BasedOnField A5}
  1.098,                                  !- Output Value 13 {BasedOnField A5}
  1.098,                                  !- Output Value 14 {BasedOnField A5}
  0.94,                                   !- Output Value 15 {BasedOnField A5}
  0.425,                                  !- Output Value 16 {BasedOnField A5}
  1.098,                                  !- Output Value 17 {BasedOnField A5}
  1.098,                                  !- Output Value 18 {BasedOnField A5}
  0.94,                                   !- Output Value 19 {BasedOnField A5}
  0.425;                                  !- Output Value 20 {BasedOnField A5}

OS:ModelObjectList,
  {25265b10-1ca4-4a36-86c7-d9a47f8720bb}, !- Handle
  Tbl Lookup PUHY-EP72TNU/YNU-A1_CCR_fn_T-IV_List, !- Name
  {d516d048-0c1d-461c-8a41-79517aee8049}, !- Model Object 1
  {100a5596-1605-49e6-a554-9b4b5194fcd5}; !- Model Object 2

OS:Table:Lookup,
  {c5f53d5c-dfd0-4cef-b55a-2ae82358a2a1}, !- Handle
  Tbl Lookup PUHY-EP72TNU/YNU-A1_CEIRM_fn_T-Output, !- Name
  {4b0d8cef-c861-44d1-b926-33aed1eeac0d}, !- Independent Variable List Name
  DivisorOnly,                            !- Normalization Method
  1,                                      !- Normalization Divisor
  0.214613486027372,                      !- Minimum Output {BasedOnField A5}
  1.27210144927536,                       !- Maximum Output {BasedOnField A5}
  Dimensionless,                          !- Output Unit Type
  ,                                       !- External File Name
  ,                                       !- External File Column Number
  ,                                       !- External File Starting Row Number
  0.571,                                  !- Output Value 1 {BasedOnField A5}
  0.609,                                  !- Output Value 2 {BasedOnField A5}