
OS:Version,
  {d8e5a2de-1271-4521-bbde-bac2a9e69594}, !- Handle
  3.10.0;                                 !- Version Identifier

OS:Site,
  {dd2b8ffc-62bd-440d-a2cf-2f78f9cf842b}, !- Handle
  Site 1,                                 !- Name
  ,                                       !- Latitude {deg}
  ,                                       !- Longitude {deg}
  ,                                       !- Time Zone {hr}
  ,                                       !- Elevation {m}
  ;                                       !- Terrain

OS:YearDescription,
  {fcd74cb7-082d-47a2-a0f5-09712798f0bb}; !- Handle

OS:ClimateZones,
  {9a02a23b-a919-4556-907f-7b510143ea0b}, !- Handle
  ASHRAE,                                 !- Climate Zone Institution Name 1
  ANSI/ASHRAE Standard 169,               !- Climate Zone Document Name 1
  2006,                                   !- Climate Zone Document Year 1
  ,                                       !- Climate Zone Value 1
  CEC,                                    !- Climate Zone Institution Name 2
  California Climate Zone Descriptions,   !- Climate Zone Document Name 2
  1995,                                   !- Climate Zone Document Year 2
  ;                                       !- Climate Zone Value 2

OS:Building,
  {49f394f2-ad8f-47a5-98a3-6f071517af27}, !- Handle
  VRF Library - Mitsubishi,               !- Name
  ,                                       !- Building Sector Type
  ,                                       !- North Axis {deg}
  ,                                       !- Nominal Floor to Floor Height {m}
  ,                                       !- Space Type Name
  ,                                       !- Default Construction Set Name
  ;                                       !- Default Schedule Set Name

OS:Facility,
  {128efd20-f716-4a06-a177-06a44a54c8fc}; !- Handle

OS:SimulationControl,
  {4e72e501-a025-4288-8d0e-41d573d88867}; !- Handle

OS:Sizing:Parameters,
  {38c91567-8108-4ebd-81d6-e8fb7b2e81c2}, !- Handle
  1.25,                                   !- Heating Sizing Factor
  1.15;                                   !- Cooling Sizing Factor

OS:Timestep,
  {ebeb2086-bb71-435f-9c8e-e3dddbe65ccf}, !- Handle
  6;                                      !- Number of Timesteps per Hour

OS:ShadowCalculation,
  {e1026e38-8906-40d2-b315-1a40a2adaaf7}, !- Handle
  PolygonClipping,                        !- Shading Calculation Method
  ,                                       !- Shading Calculation Update Frequency Method
  20,                                     !- Shading Calculation Update Frequency
  15000,                                  !- Maximum Figures in Shadow Overlap Calculations
  ,                                       !- Polygon Clipping Algorithm
  512,                                    !- Pixel Counting Resolution
  ,                                       !- Sky Diffuse Modeling Algorithm
  No,                                     !- Output External Shading Calculation Results
  No,                                     !- Disable Self-Shading Within Shading Zone Groups
  No;                                     !- Disable Self-Shading From Shading Zone Groups to Other Zones

OS:HeatBalanceAlgorithm,
  {9245c642-bee7-4e94-92f2-bb1c3b1efb94}, !- Handle
  ConductionTransferFunction,             !- Algorithm
  200;                                    !- Surface Temperature Upper Limit {C}

OS:RunPeriod,
  {cc99fd0d-492a-49e2-86c1-6969d085eab5}, !- Handle
  Run Period 1,                           !- Name
  1,                                      !- Begin Month
  1,                                      !- Begin Day of Month
  12,                                     !- End Month
  31,                                     !- End Day of Month
  ,                                       !- Use Weather File Holidays and Special Days
  ,                                       !- Use Weather File Daylight Saving Period
  ,                                       !- Apply Weekend Holiday Rule
  ,                                       !- Use Weather File Rain Indicators
  ,                                       !- Use Weather File Snow Indicators
  ;                                       !- Number of Times Runperiod to be Repeated

OS:LifeCycleCost:Parameters,
  {3ca82c2a-8d03-4697-9d21-8e05fe9bae91}, !- Handle
  ,                                       !- Analysis Type
  ,                                       !- Discounting Convention
  ,                                       !- Inflation Approach
  ,                                       !- Real Discount Rate
  ,                                       !- Nominal Discount Rate
  ,                                       !- Inflation
  ,                                       !- Base Date Month
  ,                                       !- Base Date Year
  ,                                       !- Service Date Month
  ,                                       !- Service Date Year
  ;                                       !- Length of Study Period in Years

! Always On Discrete
OS:Schedule:Constant,
  {daa43977-fdc6-4078-8925-676b425434b3}, !- Handle
  Always On Discrete hvac_library,        !- Name
  {0fe30cdc-640a-431a-b12c-5ea15872d138}, !- Schedule Type Limits Name
  1;                                      !- Value

! Always OnOff Discrete Schedule Type Limits
OS:ScheduleTypeLimits,
  {0fe30cdc-640a-431a-b12c-5ea15872d138}, !- Handle
  OnOff hvac_library,                     !- Name
  0,                                      !- Lower Limit Value
  1,                                      !- Upper Limit Value
  Discrete,                               !- Numeric Type
  Availability;                           !- Unit Type

OS:AirConditioner:VariableRefrigerantFlow,
  {c423dfa7-75cc-41ae-9fee-64b595d9693b}, !- Handle
  Mitsubishi PUHY-EP120TNU/YNU-A1 DUCTED-HIGHHEAT-VRF-OU, !- Name
  {daa43977-fdc6-4078-8925-676b425434b3}, !- Availability Schedule
  33700,                                  !- Gross Rated Total Cooling Capacity {W}
  3.24662813102119,                       !- Gross Rated Cooling COP {W/W}
  -5,                                     !- Minimum Outdoor Temperature in Cooling Mode {C}
  52,                                     !- Maximum Outdoor Temperature in Cooling Mode {C}
  {4e764eea-eb39-4672-8895-4aab9871d8dc}, !- Cooling Capacity Ratio Modifier Function of Low Temperature Curve Name
  ,                                       !- Cooling Capacity Ratio Boundary Curve Name
  ,                                       !- Cooling Capacity Ratio Modifier Function of High Temperature Curve Name
  {6beaae14-d266-4ac0-9320-74e09a8c5f0a}, !- Cooling Energy Input Ratio Modifier Function of Low Temperature Curve Name
  ,                                       !- Cooling Energy Input Ratio Boundary Curve Name
  ,                                       !- Cooling Energy Input Ratio Modifier Function of High Temperature Curve Name
  {718ac5e2-8cdf-40a6-b72e-3cf7d340b465}, !- Cooling Energy Input Ratio Modifier Function of Low Part-Load Ratio Curve Name
  {718ac5e2-8cdf-40a6-b72e-3cf7d340b465}, !- Cooling Energy Input Ratio Modifier Function of High Part-Load Ratio Curve Name
  {854d16b2-6013-4684-8eb2-a0a25aa08ab7}, !- Cooling Combination Ratio Correction Factor Curve Name
  {e6d75ff6-e5ac-45e5-ad36-73646866893b}, !- Cooling Part-Load Fraction Correlation Curve Name
  37800,                                  !- Gross Rated Heating Capacity {W}
  1.12166172106825,                       !- Rated Heating Capacity Sizing Ratio {W/W}
  4.17218543046358,                       !- Rated Heating COP {W/W}
  -25,                                    !- Minimum Outdoor Temperature in Heating Mode {C}
  15.5,                                   !- Maximum Outdoor Temperature in Heating Mode {C}
  {b1d0b00a-14f1-42f1-8159-3e8b80c24c18}, !- Heating Capacity Ratio Modifier Function of Low Temperature Curve Name
  ,                                       !- Heating Capacity Ratio Boundary Curve Name
  ,                                       !- Heating Capacity Ratio Modifier Function of High Temperature Curve Name
  {fe9667af-3023-41b3-a1de-b900c575fe9e}, !- Heating Energy Input Ratio Modifier Function of Low Temperature Curve Name
  ,                                       !- Heating Energy Input Ratio Boundary Curve Name
  ,                                       !- Heating Energy Input Ratio Modifier Function of High Temperature Curve Name
  WetBulbTemperature,                     !- Heating Performance Curve Outdoor Temperature Type
  {4ee8f514-9533-486b-bdc6-2e5b6d435d84}, !- Heating Energy Input Ratio Modifier Function of Low Part-Load Ratio Curve Name
  {4ee8f514-9533-486b-bdc6-2e5b6d435d84}, !- Heating Energy Input Ratio Modifier Function of High Part-Load Ratio Curve Name
  {3488d5d4-949d-4a78-82b5-32be89f39073}, !- Heating Combination Ratio Correction Factor Curve Name
  {e6d75ff6-e5ac-45e5-ad36-73646866893b}, !- Heating Part-Load Fraction Correlation Curve Name
  0.15,                                   !- Minimum Heat Pump Part-Load Ratio {dimensionless}
  ,                                       !- Zone Name for Master Thermostat Location
  LoadPriority,                           !- Master Thermostat Priority Control Type
  ,                                       !- Thermostat Priority Schedule
  {08dd195d-17a9-4d24-9ed3-90fd7f935c37}, !- Zone Terminal Unit List
  No,                                     !- Heat Pump Waste Heat Recovery
  30,                                     !- Equivalent Piping Length used for Piping Correction Factor in Cooling Mode {m}
  10,                                     !- Vertical Height used for Piping Correction Factor {m}
  {72713cad-992c-41e0-9d2f-796a9c284a08}, !- Piping Correction Factor for Length in Cooling Mode Curve Name
  -0.000386,                              !- Piping Correction Factor for Height in Cooling Mode Coefficient {1/m}
  30,                                     !- Equivalent Piping Length used for Piping Correction Factor in Heating Mode {m}
  {0c80bd2d-15b6-409d-89a0-7ba69a9da5fc}, !- Piping Correction Factor for Length in Heating Mode Curve Name
  0,                                      !- Piping Correction Factor for Height in Heating Mode Coefficient {1/m}
  0,                                      !- Crankcase Heater Power per Compressor {W}
  1,                                      !- Number of Compressors {dimensionless}
  1,                                      !- Ratio of Compressor Size to Total Compressor Capacity {W/W}
  0,                                      !- Maximum Outdoor Dry-bulb Temperature for Crankcase Heater {C}
  ReverseCycle,                           !- Defrost Strategy
  OnDemand,                               !- Defrost Control
  {49fe3f25-6144-4887-b2aa-d4c24e56e6ff}, !- Defrost Energy Input Ratio Modifier Function of Temperature Curve Name
  0.058333,                               !- Defrost Time Period Fraction {dimensionless}
  0,                                      !- Resistive Defrost Heater Capacity {W}
  6,                                      !- Maximum Outdoor Dry-bulb Temperature for Defrost Operation {C}
  AirCooled,                              !- Condenser Type
  ,                                       !- Condenser Inlet Node
  ,                                       !- Condenser Outlet Node
  ,                                       !- Water Condenser Volume Flow Rate {m3/s}
  0.9,                                    !- Evaporative Condenser Effectiveness {dimensionless}
  ,                                       !- Evaporative Condenser Air Flow Rate {m3/s}
  ,                                       !- Evaporative Condenser Pump Rated Power Consumption {W}
  ,                                       !- Supply Water Storage Tank
  0,                                      !- Basin Heater Capacity {W/K}
  2,                                      !- Basin Heater Setpoint Temperature {C}
  ,                                       !- Basin Heater Operating Schedule
  Electricity,                            !- Fuel Type
  -4.9,                                   !- Minimum Outdoor Temperature in Heat Recovery Mode {C}
  15.49,                                  !- Maximum Outdoor Temperature in Heat Recovery Mode {C}
  {fb55de77-750d-41ac-afd4-c6e9f1361d99}, !- Heat Recovery Cooling Capacity Modifier Curve Name
  0.5,                                    !- Initial Heat Recovery Cooling Capacity Fraction {W/W}
  0.083,                                  !- Heat Recovery Cooling Capacity Time Constant {hr}
  {afc5afeb-076f-4d7d-8838-92adf04c29b8}, !- Heat Recovery Cooling Energy Modifier Curve Name
  1,                                      !- Initial Heat Recovery Cooling Energy Fraction {W/W}
  0,                                      !- Heat Recovery Cooling Energy Time Constant {hr}
  {ab7810bd-c747-48c3-b1a6-61c67301e75b}, !- Heat Recovery Heating Capacity Modifier Curve Name
  0.5,                                    !- Initial Heat Recovery Heating Capacity Fraction {W/W}
  0.083,                                  !- Heat Recovery Heating Capacity Time Constant {hr}
  {c223fb0d-38ac-40b6-9557-0e37f8883191}, !- Heat Recovery Heating Energy Modifier Curve Name
  0.5,                                    !- Initial Heat Recovery Heating Energy Fraction {W/W}
  0;                                      !- Heat Recovery Heating Energy Time Constant {hr}

OS:Table:Lookup,
  {4e764eea-eb39-4672-8895-4aab9871d8dc}, !- Handle
  Tbl Lookup PUHY-EP120TNU/YNU-A1_CCR_fn_T-Output, !- Name
  {528cfdd3-884b-42db-8210-65e89a30b2ee}, !- Independent Variable List Name
  DivisorOnly,                            !- Normalization Method
  1,                                      !- Normalization Divisor
  0.399,                                  !- Minimum Output {BasedOnField A5}
  1.128,                                  !- Maximum Output {BasedOnField A5}
  Dimensionless,                          !- Output Unit Type
  ,                                       !- External File Name
  ,                                       !- External File Column Number
  ,                                       !- External File Starting Row Number
  1.126,                                  !- Output Value 1 {BasedOnField A5}
  1.128,                                  !- Output Value 2 {BasedOnField A5}
  0.907,                                  !- Output Value 3 {BasedOnField A5}
  0.399,                                  !- Output Value 4 {BasedOnField A5}
  1.126,                                  !- Output Value 5 {BasedOnField A5}
  1.128,                                  !- Output Value 6 {BasedOnField A5}
  0.907,                                  !- Output Value 7 {BasedOnField A5}
  0.399,                                  !- Output Value 8 {BasedOnField A5}
  1.126,                                  !- Output Value 9 {BasedOnField A5}
  1.128,                                  !- Output Value 10 {BasedOnField A5}
  0.907,                                  !- Output Value 11 {BasedOnField A5}
  0.399,                                  !- Output Value 12 {BasedOnField A5}
  1.126,                                  !- Output Value 13 {BasedOnField A5}
  1.128,                                  !- Output Value 14 {BasedOnField A5}
  0.907,                                  !- Output Value 15 {BasedOnField A5}
  0.399,                                  !- Output Value 16 {BasedOnField A5}
  1.126,                                  !- Output Value 17 {BasedOnField A5}
  1.128,                                  !- Output Value 18 {BasedOnField A5}
  0.907,                                  !- Output Value 19 {BasedOnField A5}
  0.399;                                  !- Output Value 20 {BasedOnField A5}

OS:ModelObjectList,
  {528cfdd3-884b-42db-8210-65e89a30b2ee}, !- Handle
  Tbl Lookup PUHY-EP120TNU/YNU-A1_CCR_fn_T-IV_List, !- Name
  {c24c6ff8-1e2a-4073-89ea-faf5546f2afd}, !- Model Object 1
  {f9c574b2-386b-4040-9d0c-795901b23dfd}; !- Model Object 2

OS:Table:Lookup,
  {6beaae14-d266-4ac0-9320-74e09a8c5f0a}, !- Handle
  Tbl Lookup PUHY-EP120TNU/YNU-A1_CEIRM_fn_T-Output, !- Name
  {cbd8e77e-8fc6-4abd-be63-68b2da7ad08e}, !- Independent Variable List Name
  DivisorOnly,                            !- Normalization Method
  1,                                      !- Normalization Divisor
  0.24517,                                !- Minimum Output {BasedOnField A5}
  1.21498,                                !- Maximum Output {BasedOnField A5}
  Dimensionless,                          !- Output Unit Type
  ,                                       !- External File Name
  ,                                       !- External File Column Number
  ,                                       !- External File Starting Row Number
  0.548,                                  !- Output Value 1 {BasedOnField A5}
  0.632,                                  !- Output Value 2 {BasedOnField A5}
  0.638,                                  !- Output Value 3 {BasedOnField A5}
  0.641,                                  !- Output Value 4 {BasedOnField A5}
  0.642,                                  !- Output Value 5 {BasedOnField A5}
  0.645,                                  !- Output Value 6 {BasedOnField A5}
  0.649,                                  !- Output Value 7 {BasedOnField A5}
  0.652,                                  !- Output Value 8 {BasedOnField A5}
  1.061,                                  !- Output Value 9 {BasedOnField A5}
  0.245,                                  !- Output Value 10 {BasedOnField A5}
  0.599,                                  !- Output Value 11 {BasedOnField A5}
  0.68,                                   !- Output Value 12 {BasedOnField A5}
  0.685,                                  !- Output Value 13 {BasedOnField A5}
  0.69,                                   !- Output Value 14 {BasedOnField A5}
  0.692,                                  !- Output Value 15 {BasedOnField A5}
  0.696,                                  !- Output Value 16 {BasedOnField A5}
  0.701,                                  !- Output Value 17 {BasedOnField A5}
  0.71,                                   !- Output Value 18 {BasedOnField A5}
  1.11,                                   !- Output Value 19 {BasedOnField A5}
  0.296,                                  !- Output Value 20 {BasedOnField A5}
  0.658,                                  !- Output Value 21 {BasedOnField A5}
  0.741,                                  !- Output Value 22 {BasedOnField A5}
  0.746,                                  !- Output Value 23 {BasedOnField A5}
  0.751,                                  !- Output Value 24 {BasedOnField A5}
  0.751,                                  !- Output Value 25 {BasedOnField A5}
  0.755,                                  !- Output Value 26 {BasedOnField A5}
  0.773,                                  !- Output Value 27 {BasedOnField A5}
  0.782,                                  !- Output Value 28 {BasedOnField A5}
  1.167,                                  !- Output Value 29 {BasedOnField A5}
  0.353,                                  !- Output Value 30 {BasedOnField A5}
  0.665,                                  !- Output Value 31 {BasedOnField A5}
  0.745,                                  !- Output Value 32 {BasedOnField A5}
  0.749,                                  !- Output Value 33 {BasedOnField A5}
  0.753,                                  !- Output Value 34 {BasedOnField A5}
  0.754,                                  !- Output Value 35 {BasedOnField A5}
  0.766,                                  !- Output Value 36 {BasedOnField A5}
  0.782,                                  !- Output Value 37 {BasedOnField A5}
  0.791,                                  !- Output Value 38 {BasedOnField A5}
  1.176,                                  !- Output Value 39 {BasedOnField A5}
  0.367,                                  !- Output Value 40 {BasedOnField A5}
  0.67,                                   !- Output Value 41 {BasedOnField A5}
  0.75,                                   !- Output Value 42 {BasedOnField A5}
  0.757,                                  !- Output Value 43 {BasedOnField A5}
  0.761,                                  !- Output Value 44 {BasedOnField A5}
  0.766,                                  !- Output Value 45 {BasedOnField A5}
  0.775,                                  !- Output Value 46 {BasedOnField A5}
  0.791,                                  !- Output Value 47 {BasedOnField A5}
  0.799,                                  !- Output Value 48 {BasedOnField A5}
  1.183,                                  !- Output Value 49 {BasedOnField A5}
  0.379,                                  !- Output Value 50 {BasedOnField A5}
  0.682,                                  !- Output Value 51 {BasedOnField A5}
  0.758,                                  !- Output Value 52 {BasedOnField A5}
  0.766,                                  !- Output Value 53 {BasedOnField A5}
  0.786,                                  !- Output Value 54 {BasedOnField A5}
  0.791,                                  !- Output Value 55 {BasedOnField A5}
  0.803,                                  !- Output Value 56 {BasedOnField A5}
  0.819,                                  !- Output Value 57 {BasedOnField A5}
  0.827,                                  !- Output Value 58 {BasedOnField A5}
  1.2,                                    !- Output Value 59 {BasedOnField A5}
  0.393,                                  !- Output Value 60 {BasedOnField A5}
  0.697,                                  !- Output Value 61 {BasedOnField A5}
  0.77,                                   !- Output Value 62 {BasedOnField A5}
  0.793,                                  !- Output Value 63 {BasedOnField A5}
  0.812,                                  !- Output Value 64 {BasedOnField A5}
  0.819,                                  !- Output Value 65 {BasedOnField A5}
  0.828,                                  !- Output Value 66 {BasedOnField A5}
  0.844,                                  !- Output Value 67 {BasedOnField A5}
  0.852,                                  !- Output Value 68 {BasedOnField A5}
  1.215,                                  !- Output Value 69 {BasedOnField A5}
  0.403;                                  !- Output Value 70 {BasedOnField A5}

OS:ModelObjectList,
  {cbd8e77e-8fc6-4abd-be63-68b2da7ad08e}, !- Handle
  Tbl Lookup PUHY-EP120TNU/YNU-A1_CEIRM_fn_T-IV_List, !- Name
  {c3d7f1ee-b72e-42f7-8308-61a87e7d2f8c}, !- Model Object 1
  {59554d67-928f-4577-b48a-0f1bbe889b47}; !- Model Object 2

OS:Table:Lookup,
  {718ac5e2-8cdf-40a6-b72e-3cf7d340b465}, !- Handle
  Tbl Lookup PUHY-EP120TNU/YNU-A1_CEIRM_fn_LPLR-Output, !- Name
  {0ae3dd9f-3c88-4b2c-90c2-eff31652736a}, !- Independent Variable List Name
  DivisorOnly,                            !- Normalization Method
  1,                                      !- Normalization Divisor
  0.31615,                                !- Minimum Output {BasedOnField A5}
  1.03122,                                !- Maximum Output {BasedOnField A5}
  Dimensionless,                          !- Output Unit Type
  ,                                       !- External File Name
  ,                                       !- External File Column Number
  ,                                       !- External File Starting Row Number
  0.316,                                  !- Output Value 1 {BasedOnField A5}
  0.316,                                  !- Output Value 2 {BasedOnField A5}
  0.398,                                  !- Output Value 3 {BasedOnField A5}
  0.596,                                  !- Output Value 4 {BasedOnField A5}
  0.842,                                  !- Output Value 5 {BasedOnField A5}
  0.997,                                  !- Output Value 6 {BasedOnField A5}
  1.031;                                  !- Output Value 7 {BasedOnField A5}

OS:ModelObjectList,
  {0ae3dd9f-3c88-4b2c-90c2-eff31652736a}, !- Handle
  Tbl Lookup PUHY-EP120TNU/YNU-A1_CEIRM_fn_LPLR-IV_List, !- Name
  {94bac624-fc6c-4ef4-9f04-fc0d51a9eb83}; !- Model Object 1

OS:Curve:Linear,
  {854d16b2-6013-4684-8eb2-a0a25aa08ab7}, !- Handle
  PUHY-EP120TNU/YNU-A1 CC_fn_CR_Curve,    !- Name
  0.703329238751068,                      !- Coefficient1 Constant
  0.296670761248932,                      !- Coefficient2 x
  1,                                      !- Minimum Value of x
  1.30093966666667,                       !- Maximum Value of x
  1,                                      !- Minimum Curve Output
  1.08928;                                !- Maximum Curve Output

OS:Curve:Cubic,
  {e6d75ff6-e5ac-45e5-ad36-73646866893b}, !- Handle
  PUHY-EP120TNU/YNU-A1 C_H_PLF_Cor_Curve, !- Name
  0.85,                                   !- Coefficient1 Constant
  0.15,                                   !- Coefficient2 x
  0,                                      !- Coefficient3 x**2
  0,                                      !- Coefficient4 x**3
  1,                                      !- Minimum Value of x
  1,                                      !- Maximum Value of x
  ,                                       !- Minimum Curve Output
  ,                                       !- Maximum Curve Output
  Dimensionless,                          !- Input Unit Type for X
  Dimensionless;                          !- Output Unit Type

OS:Table:Lookup,
  {b1d0b00a-14f1-42f1-8159-3e8b80c24c18}, !- Handle
  Tbl Lookup PUHY-EP120TNU/YNU-A1_HH_HCR_fn_T-Output, !- Name
  {4474926d-2674-40a5-a018-0c3b32160cd5}, !- Independent Variable List Name
  DivisorOnly,                            !- Normalization Method
  1,                                      !- Normalization Divisor
  0.68,                                   !- Minimum Output {BasedOnField A5}
  1,                                      !- Maximum Output {BasedOnField A5}
  Dimensionless,                          !- Output Unit Type
  ,                                       !- External File Name
  ,                                       !- External File Column Number
  ,                                       !- External File Starting Row Number
  0.68,                                   !- Output Value 1 {BasedOnField A5}
  0.8,                                    !- Output Value 2 {BasedOnField A5}
  1,                                      !- Output Value 3 {BasedOnField A5}
  1,                                      !- Output Value 4 {BasedOnField A5}
  1,                                      !- Output Value 5 {BasedOnField A5}
  0.68,                                   !- Output Value 6 {BasedOnField A5}
  0.8,                                    !- Output Value 7 {BasedOnField A5}
  1,                                      !- Output Value 8 {BasedOnField A5}
  1,                                      !- Output Value 9 {BasedOnField A5}
  1,                                      !- Output Value 10 {BasedOnField A5}
  0.68,                                   !- Output Value 11 {BasedOnField A5}
  0.8,                                    !- Output Value 12 {BasedOnField A5}
  1,                                      !- Output Value 13 {BasedOnField A5}
  1,                                      !- Output Value 14 {BasedOnField A5}
  1,                                      !- Output Value 15 {BasedOnField A5}
  0.68,                                   !- Output Value 16 {BasedOnField A5}
  0.8,                                    !- Output Value 17 {BasedOnField A5}
  1,                                      !- Output Value 18 {BasedOnField A5}
  1,                                      !- Output Value 19 {BasedOnField A5}
  1,                                      !- Output Value 20 {BasedOnField A5}
  0.68,                                   !- Output Value 21 {BasedOnField A5}
  0.8,                                    !- Output Value 22 {BasedOnField A5}
  1,                                      !- Output Value 23 {BasedOnField A5}
  1,                                      !- Output Value 24 {BasedOnField A5}
  1;                                      !- Output Value 25 {BasedOnField A5}

OS:ModelObjectList,
  {4474926d-2674-40a5-a018-0c3b32160cd5}, !- Handle
  Tbl Lookup PUHY-EP120TNU/YNU-A1_HH_HCR_fn_T-IV_List, !- Name
  {6b9bd6f8-8045-4960-b013-02842b04ad29}, !- Model Object 1
  {d19aaeb5-6d89-4509-a626-73b0b7796a69}; !- Model Object 2

OS:Table:Lookup,
  {fe9667af-3023-41b3-a1de-b900c575fe9e}, !- Handle
  Tbl Lookup PUHY-EP120TNU/YNU-A1_HH_HEIRM_fn_T-Output, !- Name
  {c07d06b8-ac2e-4470-96f2-dd802c3bca7f}, !- Independent Variable List Name
  DivisorOnly,                            !- Normalization Method
  1,                                      !- Normalization Divisor
  0.43,                                   !- Minimum Output {BasedOnField A5}
  1.82,                                   !- Maximum Output {BasedOnField A5}
  Dimensionless,                          !- Output Unit Type
  ,                                       !- External File Name
  ,                                       !- External File Column Number
  ,                                       !- External File Starting Row Number
  1.6,                                    !- Output Value 1 {BasedOnField A5}
  1.62,                                   !- Output Value 2 {BasedOnField A5}
  1.65,                                   !- Output Value 3 {BasedOnField A5}
  1.7,                                    !- Output Value 4 {BasedOnField A5}
  1.74,                                   !- Output Value 5 {BasedOnField A5}
  1.37,                                   !- Output Value 6 {BasedOnField A5}
  1.13,                                   !- Output Value 7 {BasedOnField A5}
  0.93,                                   !- Output Value 8 {BasedOnField A5}
  0.76,                                   !- Output Value 9 {BasedOnField A5}
  1.65,                                   !- Output Value 10 {BasedOnField A5}